version 2
run General-0-20231120-10:57:04-11756
attr configname General
attr datetime 20231120-10:57:04
attr experiment General
attr inifile omnetpp.ini
attr iterationvars ""
attr iterationvarsf ""
attr measurement ""
attr network WirelessNetwork
attr processid 11756
attr repetition 0
attr replication #0
attr resultdir results
attr runnumber 0
attr seedset 0
param *.host*.ipv4.arp.typename "\"GlobalArp\""
param *.hostA.numApps 1
param *.hostA.app[0].typename "\"UdpBasicApp\""
param *.hostA.app[0].destAddresses "\"hostB\""
param *.hostA.app[0].destPort 5000
param *.hostA.app[0].messageLength 1000B
param *.hostA.app[0].sendInterval exponential(12ms)
param *.hostA.app[0].packetName "\"UDPData\""
param *.hostB.numApps 1
param *.hostB.app[0].typename "\"UdpSink\""
param *.hostB.app[0].localPort 5000
param *.host*.wlan[0].typename "\"AckingWirelessInterface\""
param *.host*.wlan[0].mac.useAck false
param *.host*.wlan[0].mac.fullDuplex false
param *.host*.wlan[0].radio.transmitter.communicationRange 500m
param *.host*.wlan[0].radio.receiver.ignoreInterference true
param *.host*.wlan[0].mac.headerLength 23B
param *.host*.**.bitrate 1Mbps
param **.radio.displayCommunicationRange true
param *.visualizer.mediumVisualizer.displaySignals true
param *.visualizer.physicalLinkVisualizer.displayLinks true
param *.visualizer.physicalLinkVisualizer.packetFilter "\"UDPData*\""
param *.visualizer.mobilityVisualizer.displayVelocities true
param *.visualizer.mobilityVisualizer.displayMovementTrails true
param *.hostA.mobility.typename "\"LinearMobility\""
param *.hostA.mobility.speed 12mps
param *.hostA.mobility.initialMovementHeading 20deg

vector 0 WirelessNetwork.hostA.wlan[0].radio radioMode:vector ETV
attr interpolationmode sample-hold
attr source radioModeChanged
attr title "Radio mode, vector"
vector 1 WirelessNetwork.hostB.wlan[0].radio radioMode:vector ETV
attr interpolationmode sample-hold
attr source radioModeChanged
attr title "Radio mode, vector"
vector 2 WirelessNetwork.hostA.wlan[0].radio receptionState:vector ETV
attr interpolationmode sample-hold
attr source receptionStateChanged
attr title "Radio reception state, vector"
vector 3 WirelessNetwork.hostB.wlan[0].radio receptionState:vector ETV
attr interpolationmode sample-hold
attr source receptionStateChanged
attr title "Radio reception state, vector"
vector 4 WirelessNetwork.hostA.app[0] packetSent:vector(packetBytes) ETV
attr interpolationmode none
attr source packetSent
attr title "packets sent, vector(packetBytes)"
vector 5 WirelessNetwork.hostA.udp packetSent:vector(packetBytes) ETV
attr interpolationmode none
attr source packetSent
attr title "packets sent, vector(packetBytes)"
vector 6 WirelessNetwork.hostA.wlan[0].mac rcvdPkFromHl:vector(packetBytes) ETV
attr interpolationmode none
attr source packetReceivedFromUpper
attr title "packets received from higher layer, vector(packetBytes)"
vector 7 WirelessNetwork.hostA.wlan[0].mac.queue packetPushed:vector(packetBytes) ETV
attr interpolationmode none
attr title "packet pushed, vector(packetBytes)"
vector 8 WirelessNetwork.hostA.wlan[0].mac.queue queueLength:vector ETV
attr interpolationmode sample-hold
attr source "count(packetPushed) - count(packetPopped) - count(packetRemoved) - count(packetDropped)"
attr title "queue length, vector"
vector 9 WirelessNetwork.hostA.wlan[0].mac.queue packetPopped:vector(packetBytes) ETV
attr interpolationmode none
attr title "packet popped, vector(packetBytes)"
vector 10 WirelessNetwork.hostA.wlan[0].mac.queue queueingTime:vector ETV
attr interpolationmode none
attr source queueingTime(packetPopped)
attr title "queueing times, vector"
attr unit s
vector 11 WirelessNetwork.hostA.wlan[0].radio transmissionState:vector ETV
attr interpolationmode sample-hold
attr source transmissionStateChanged
attr title "Radio transmission state, vector"
vector 12 WirelessNetwork.hostA.wlan[0].mac sentDownPk:vector(packetBytes) ETV
attr interpolationmode none
attr source packetSentToLower
attr title "packets sent to lower layer, vector(packetBytes)"
vector 13 WirelessNetwork.hostB.wlan[0].mac rcvdPkFromLl:vector(packetBytes) ETV
attr interpolationmode none
attr source packetReceivedFromLower
attr title "packets received from lower layer, vector(packetBytes)"
vector 14 WirelessNetwork.hostB.wlan[0].mac passedUpPk:vector(packetBytes) ETV
attr interpolationmode none
attr source packetSentToUpper
attr title "packets passed to higher layer, vector(packetBytes)"
vector 15 WirelessNetwork.hostB.udp packetReceived:vector(packetBytes) ETV
attr interpolationmode none
attr source packetReceived
attr title "packets received, vector(packetBytes)"
vector 16 WirelessNetwork.hostB.udp passedUpPk:vector(count) ETV
attr interpolationmode none
attr source packetSentToUpper
attr title "packets passed up, vector(count)"
vector 17 WirelessNetwork.hostB.app[0] packetReceived:vector(packetBytes) ETV
attr interpolationmode none
attr source packetReceived
attr title "packets received, vector(packetBytes)"
vector 18 WirelessNetwork.hostB.app[0] endToEndDelay:vector ETV
attr interpolationmode none
attr source dataAge(packetReceived)
attr title "end-to-end delay, vector"
attr unit s
vector 19 WirelessNetwork.hostB.app[0] rcvdPkSeqNo:vector ETV
attr interpolationmode none
attr source appPkSeqNo(packetReceived)
attr title "received packet sequence number, vector"
vector 20 WirelessNetwork.hostB.app[0] throughput:vector ETV
attr source throughput(packetReceived)
attr title "throughput, vector"
attr unit bps
vector 21 WirelessNetwork.hostA.app[0] throughput:vector ETV
attr source throughput(packetReceived)
attr title "throughput, vector"
attr unit bps
0	0	0	0
0	0	0	0
0	0	0	2
0	8	0.022315250545	3
0	15	0.030819250545	2
0	15	0.030819250545	3
0	23	0.039323250545	2
0	29	0.041385743993	3
0	37	0.049889743993	2
0	37	0.049889743993	3
0	45	0.058393743993	2
0	52	0.07497426742	3
0	55	0.08347826742	2
0	66	0.114753214779	3
0	73	0.123257214779	2
0	73	0.123257214779	3
0	81	0.131761214779	2
0	87	0.139383193449	3
0	91	0.147887193449	2
0	100	0.148415282809	3
0	103	0.156919282809	2
0	113	0.158488477044	3
0	117	0.166992477044	2
0	127	0.189667526074	3
0	142	0.198171526074	2
0	142	0.198171526074	3
0	151	0.206675526074	2
0	151	0.206675526074	3
0	160	0.215179526074	2
0	160	0.215179526074	3
0	169	0.223683526074	2
0	169	0.223683526074	3
0	178	0.232187526074	2
0	178	0.232187526074	3
0	187	0.240691526074	2
0	194	0.255893823874	3
0	197	0.264397823874	2
0	208	0.302036486304	3
0	211	0.310540486304	2
0	221	0.321299360989	3
0	228	0.329803360989	2
0	228	0.329803360989	3
0	236	0.338307360989	2
0	242	0.346924946193	3
0	250	0.355428946193	2
0	250	0.355428946193	3
0	266	0.363932946193	2
0	266	0.363932946193	3
0	271	0.372436946193	2
0	271	0.372436946193	3
0	280	0.380940946193	2
0	287	0.3972824235	3
0	291	0.4057864235	2
0	300	0.406136351001	3
0	307	0.414640351001	2
0	307	0.414640351001	3
0	320	0.423144351001	2
0	320	0.423144351001	3
0	325	0.431648351001	2
0	335	0.434109561779	3
0	343	0.442613561779	2
0	343	0.442613561779	3
0	351	0.451117561779	2
0	356	0.451502567324	3
0	364	0.460006567324	2
0	364	0.460006567324	3
0	377	0.468510567324	2
0	377	0.468510567324	3
0	386	0.477014567324	2
0	386	0.477014567324	3
0	395	0.485518567324	2
0	400	0.486145297277	3
0	404	0.494649297277	2
0	416	0.520680277532	3
0	419	0.529184277532	2
0	428	0.534421944988	3
0	436	0.542925944988	2
0	436	0.542925944988	3
0	448	0.551429944988	2
0	448	0.551429944988	3
0	453	0.559933944988	2
0	462	0.561015849403	3
0	470	0.569519849403	2
0	470	0.569519849403	3
0	483	0.578023849403	2
0	483	0.578023849403	3
0	488	0.586527849403	2
0	498	0.588275351848	3
0	510	0.596779351848	2
0	510	0.596779351848	3
0	527	0.605283351848	2
0	527	0.605283351848	3
0	536	0.613787351848	2
0	536	0.613787351848	3
0	549	0.622291351848	2
0	549	0.622291351848	3
0	554	0.630795351848	2
0	554	0.630795351848	3
0	563	0.639299351848	2
0	563	0.639299351848	3
0	568	0.647803351848	2
0	579	0.673253932282	3
0	594	0.681757932282	2
0	594	0.681757932282	3
0	602	0.690261932282	2
0	602	0.690261932282	3
0	615	0.698765932282	2
0	615	0.698765932282	3
0	633	0.707269932282	2
0	633	0.707269932282	3
0	646	0.715773932282	2
0	646	0.715773932282	3
0	659	0.724277932282	2
0	659	0.724277932282	3
0	672	0.732781932282	2
0	672	0.732781932282	3
0	685	0.741285932282	2
0	685	0.741285932282	3
0	690	0.749789932282	2
0	690	0.749789932282	3
0	707	0.758293932282	2
0	707	0.758293932282	3
0	712	0.766797932282	2
0	712	0.766797932282	3
0	721	0.775301932282	2
0	721	0.775301932282	3
0	734	0.783805932282	2
0	734	0.783805932282	3
0	743	0.792309932282	2
0	743	0.792309932282	3
0	749	0.800813932282	2
0	749	0.800813932282	3
0	758	0.809317932282	2
0	758	0.809317932282	3
0	763	0.817821932282	2
0	763	0.817821932282	3
0	776	0.826325932282	2
0	776	0.826325932282	3
0	785	0.834829932282	2
0	785	0.834829932282	3
0	794	0.843333932282	2
0	801	0.875445285936	3
0	804	0.883949285936	2
0	813	0.886587027899	3
0	817	0.895091027899	2
0	827	0.902717971165	3
0	843	0.911221971165	2
0	843	0.911221971165	3
0	863	0.919725971165	2
0	863	0.919725971165	3
0	876	0.928229971165	2
0	876	0.928229971165	3
0	885	0.936733971165	2
0	885	0.936733971165	3
0	894	0.945237971165	2
0	894	0.945237971165	3
0	907	0.953741971165	2
0	907	0.953741971165	3
0	916	0.962245971165	2
0	916	0.962245971165	3
0	933	0.970749971165	2
0	933	0.970749971165	3
0	942	0.979253971165	2
0	942	0.979253971165	3
0	951	0.987757971165	2
0	951	0.987757971165	3
0	956	0.996261971165	2
0	956	0.996261971165	3
0	966	1.004765971165	2
0	966	1.004765971165	3
0	979	1.013269971165	2
0	979	1.013269971165	3
0	988	1.021773971165	2
0	988	1.021773971165	3
0	1001	1.030277971165	2
0	1001	1.030277971165	3
0	1010	1.038781971165	2
0	1010	1.038781971165	3
0	1023	1.047285971165	2
0	1023	1.047285971165	3
0	1036	1.055789971165	2
0	1036	1.055789971165	3
0	1049	1.064293971165	2
0	1049	1.064293971165	3
0	1058	1.072797971165	2
0	1058	1.072797971165	3
0	1071	1.081301971165	2
0	1071	1.081301971165	3
0	1080	1.089805971165	2
0	1080	1.089805971165	3
0	1093	1.098309971165	2
0	1093	1.098309971165	3
0	1103	1.106813971165	2
0	1103	1.106813971165	3
0	1112	1.115317971165	2
0	1112	1.115317971165	3
0	1121	1.123821971165	2
0	1121	1.123821971165	3
0	1126	1.132325971165	2
0	1126	1.132325971165	3
0	1135	1.140829971165	2
0	1135	1.140829971165	3
0	1140	1.149333971165	2
0	1150	1.152161667644	3
0	1158	1.160665667644	2
0	1158	1.160665667644	3
0	1170	1.169169667644	2
0	1170	1.169169667644	3
0	1179	1.177673667644	2
0	1179	1.177673667644	3
0	1188	1.186177667644	2
0	1193	1.186844375116	3
0	1201	1.195348375116	2
0	1201	1.195348375116	3
0	1211	1.203852375116	2
0	1218	1.226500794914	3
0	1225	1.235004794914	2
0	1225	1.235004794914	3
0	1233	1.243508794914	2
0	1240	1.256093801801	3
0	1243	1.264597801801	2
0	1252	1.270520664608	3
0	1260	1.279024664608	2
0	1260	1.279024664608	3
0	1268	1.287528664608	2
0	1274	1.294927972662	3
0	1283	1.303431972662	2
0	1283	1.303431972662	3
0	1291	1.311935972662	2
0	1298	1.326542190388	3
0	1301	1.335046190388	2
0	1310	1.336988620304	3
0	1314	1.345492620304	2
0	1324	1.362606585704	3
0	1327	1.371110585704	2
0	1336	1.376759180908	3
0	1340	1.385263180908	2
0	1349	1.392262092134	3
0	1358	1.400766092134	2
0	1358	1.400766092134	3
0	1366	1.409270092134	2
0	1373	1.438117305957	3
0	1376	1.446621305957	2
0	1385	1.450510870085	3
0	1393	1.459014870085	2
0	1393	1.459014870085	3
0	1401	1.467518870085	2
0	1406	1.468316456532	3
0	1418	1.476820456532	2
0	1418	1.476820456532	3
0	1427	1.485324456532	2
0	1427	1.485324456532	3
0	1440	1.493828456532	2
0	1440	1.493828456532	3
0	1454	1.502332456532	2
0	1454	1.502332456532	3
0	1467	1.510836456532	2
0	1467	1.510836456532	3
0	1480	1.519340456532	2
0	1480	1.519340456532	3
0	1489	1.527844456532	2
0	1489	1.527844456532	3
0	1502	1.536348456532	2
0	1502	1.536348456532	3
0	1507	1.544852456532	2
0	1507	1.544852456532	3
0	1520	1.553356456532	2
0	1520	1.553356456532	3
0	1529	1.561860456532	2
0	1529	1.561860456532	3
0	1538	1.570364456532	2
0	1538	1.570364456532	3
0	1551	1.578868456532	2
0	1551	1.578868456532	3
0	1560	1.587372456532	2
0	1560	1.587372456532	3
0	1565	1.595876456532	2
0	1576	1.604662398509	3
0	1584	1.613166398509	2
0	1584	1.613166398509	3
0	1596	1.621670398509	2
0	1596	1.621670398509	3
0	1601	1.630174398509	2
0	1612	1.64372898762	3
0	1615	1.65223298762	2
0	1625	1.663419758555	3
0	1628	1.671923758555	2
0	1637	1.678023992499	3
0	1645	1.686527992499	2
0	1645	1.686527992499	3
0	1653	1.695031992499	2
0	1661	1.709522729784	3
0	1664	1.718026729784	2
0	1673	1.724554020083	3
0	1677	1.733058020083	2
0	1688	1.805738706322	3
0	1695	1.814242706322	2
0	1695	1.814242706322	3
0	1703	1.822746706322	2
0	1709	1.831992053168	3
0	1717	1.840496053168	2
0	1717	1.840496053168	3
0	1733	1.849000053168	2
0	1733	1.849000053168	3
0	1738	1.857504053168	2
0	1738	1.857504053168	3
0	1747	1.866008053168	2
0	1753	1.869784908311	3
0	1757	1.878288908311	2
0	1767	1.889545537527	3
0	1770	1.898049537527	2
0	1779	1.899648109068	3
0	1792	1.908152109068	2
0	1792	1.908152109068	3
0	1800	1.916656109068	2
0	1800	1.916656109068	3
0	1809	1.925160109068	2
0	1809	1.925160109068	3
0	1822	1.933664109068	2
0	1822	1.933664109068	3
0	1827	1.942168109068	2
0	1837	1.943743516144	3
0	1841	1.952247516144	2
0	1851	1.967896788978	3
0	1854	1.976400788978	2
0	1865	2.012416316081	3
0	1868	2.020920316081	2
0	1878	2.035655242931	3
0	1889	2.044159242931	2
0	1889	2.044159242931	3
0	1897	2.052663242931	2
0	1897	2.052663242931	3
0	1910	2.061167242931	2
0	1910	2.061167242931	3
0	1927	2.069671242931	2
0	1927	2.069671242931	3
0	1940	2.078175242931	2
0	1940	2.078175242931	3
0	1949	2.086679242931	2
0	1949	2.086679242931	3
0	1962	2.095183242931	2
0	1962	2.095183242931	3
0	1976	2.103687242931	2
0	1976	2.103687242931	3
0	1981	2.112191242931	2
0	1981	2.112191242931	3
0	1990	2.120695242931	2
0	1990	2.120695242931	3
0	1995	2.129199242931	2
0	1995	2.129199242931	3
0	2008	2.137703242931	2
0	2008	2.137703242931	3
0	2021	2.146207242931	2
0	2021	2.146207242931	3
0	2034	2.154711242931	2
0	2034	2.154711242931	3
0	2043	2.163215242931	2
0	2043	2.163215242931	3
0	2056	2.171719242931	2
0	2056	2.171719242931	3
0	2065	2.180223242931	2
0	2065	2.180223242931	3
0	2074	2.188727242931	2
0	2074	2.188727242931	3
0	2079	2.197231242931	2
0	2090	2.205260755149	3
0	2094	2.213764755149	2
0	2103	2.21668271164	3
0	2107	2.22518671164	2
0	2116	2.225887667495	3
0	2119	2.234391667495	2
0	2129	2.236584210418	3
0	2133	2.245088210418	2
0	2142	2.252301634874	3
0	2150	2.260805634874	2
0	2150	2.260805634874	3
0	2170	2.269309634874	2
0	2170	2.269309634874	3
0	2175	2.277813634874	2
0	2175	2.277813634874	3
0	2184	2.286317634874	2
0	2184	2.286317634874	3
0	2189	2.294821634874	2
0	2200	2.302850240863	3
0	2204	2.311354240863	2
0	2213	2.318994410062	3
0	2221	2.327498410062	2
0	2221	2.327498410062	3
0	2241	2.336002410062	2
0	2241	2.336002410062	3
0	2250	2.344506410062	2
0	2250	2.344506410062	3
0	2263	2.353010410062	2
0	2263	2.353010410062	3
0	2272	2.361514410062	2
0	2272	2.361514410062	3
0	2297	2.370018410062	2
0	2297	2.370018410062	3
0	2302	2.378522410062	2
0	2302	2.378522410062	3
0	2315	2.387026410062	2
0	2315	2.387026410062	3
0	2324	2.395530410062	2
0	2324	2.395530410062	3
0	2338	2.404034410062	2
0	2338	2.404034410062	3
0	2343	2.412538410062	2
0	2343	2.412538410062	3
0	2352	2.421042410062	2
0	2352	2.421042410062	3
0	2361	2.429546410062	2
0	2361	2.429546410062	3
0	2370	2.438050410062	2
0	2370	2.438050410062	3
0	2375	2.446554410062	2
0	2375	2.446554410062	3
0	2384	2.455058410062	2
0	2391	2.482298732409	3
0	2398	2.490802732409	2
0	2398	2.490802732409	3
0	2410	2.499306732409	2
0	2410	2.499306732409	3
0	2424	2.507810732409	2
0	2424	2.507810732409	3
0	2433	2.516314732409	2
0	2433	2.516314732409	3
0	2446	2.524818732409	2
0	2446	2.524818732409	3
0	2459	2.533322732409	2
0	2459	2.533322732409	3
0	2468	2.541826732409	2
0	2468	2.541826732409	3
0	2477	2.550330732409	2
0	2477	2.550330732409	3
0	2482	2.558834732409	2
0	2492	2.561669400952	3
0	2496	2.570173400952	2
0	2505	2.573567452467	3
0	2509	2.582071452467	2
0	2519	2.598297307358	3
0	2527	2.606801307358	2
0	2527	2.606801307358	3
0	2535	2.615305307358	2
0	2541	2.621328836518	3
0	2549	2.629832836518	2
0	2549	2.629832836518	3
0	2557	2.638336836518	2
0	2564	2.660431225778	3
0	2567	2.668935225778	2
0	2576	2.674388585179	3
0	2584	2.682892585179	2
0	2584	2.682892585179	3
0	2592	2.691396585179	2
0	2600	2.712634970432	3
0	2603	2.721138970432	2
0	2612	2.728385066348	3
0	2624	2.736889066348	2
0	2624	2.736889066348	3
0	2640	2.745393066348	2
0	2640	2.745393066348	3
0	2653	2.753897066348	2
0	2653	2.753897066348	3
0	2666	2.762401066348	2
0	2666	2.762401066348	3
0	2679	2.770905066348	2
0	2679	2.770905066348	3
0	2688	2.779409066348	2
0	2688	2.779409066348	3
0	2697	2.787913066348	2
0	2697	2.787913066348	3
0	2706	2.796417066348	2
0	2706	2.796417066348	3
0	2716	2.804921066348	2
0	2716	2.804921066348	3
0	2729	2.813425066348	2
0	2729	2.813425066348	3
0	2742	2.821929066348	2
0	2742	2.821929066348	3
0	2751	2.830433066348	2
0	2751	2.830433066348	3
0	2764	2.838937066348	2
0	2764	2.838937066348	3
0	2773	2.847441066348	2
0	2773	2.847441066348	3
0	2790	2.855945066348	2
0	2790	2.855945066348	3
0	2803	2.864449066348	2
0	2803	2.864449066348	3
0	2812	2.872953066348	2
0	2812	2.872953066348	3
0	2821	2.881457066348	2
0	2821	2.881457066348	3
0	2826	2.889961066348	2
0	2826	2.889961066348	3
0	2835	2.898465066348	2
0	2835	2.898465066348	3
0	2845	2.906969066348	2
0	2845	2.906969066348	3
0	2854	2.915473066348	2
0	2854	2.915473066348	3
0	2863	2.923977066348	2
0	2863	2.923977066348	3
0	2872	2.932481066348	2
0	2877	2.933378235419	3
0	2881	2.941882235419	2
0	2892	2.961464138947	3
0	2899	2.969968138947	2
0	2899	2.969968138947	3
0	2911	2.978472138947	2
0	2911	2.978472138947	3
0	2920	2.986976138947	2
0	2920	2.986976138947	3
0	2929	2.995480138947	2
0	2937	3.021910680853	3
0	2948	3.030414680853	2
0	2948	3.030414680853	3
0	2964	3.038918680853	2
0	2964	3.038918680853	3
0	2969	3.047422680853	2
0	2969	3.047422680853	3
0	2978	3.055926680853	2
0	2978	3.055926680853	3
0	2987	3.064430680853	2
0	2987	3.064430680853	3
0	2996	3.072934680853	2
0	3002	3.075961909561	3
0	3006	3.084465909561	2
0	3015	3.094415854135	3
0	3024	3.102919854135	2
0	3024	3.102919854135	3
0	3040	3.111423854135	2
0	3040	3.111423854135	3
0	3049	3.119927854135	2
0	3049	3.119927854135	3
0	3058	3.128431854135	2
0	3058	3.128431854135	3
0	3063	3.136935854135	2
0	3074	3.163280421768	3
0	3077	3.171784421768	2
0	3087	3.188379100639	3
0	3094	3.196883100639	2
0	3094	3.196883100639	3
0	3103	3.205387100639	2
0	3110	3.232438910766	3
0	3117	3.240942910766	2
0	3117	3.240942910766	3
0	3125	3.249446910766	2
0	3132	3.271388244226	3
0	3135	3.279892244226	2
0	3146	3.305427926547	3
0	3149	3.313931926547	2
0	3159	3.324693431704	3
0	3162	3.333197431704	2
0	3171	3.336638995424	3
0	3175	3.345142995424	2
0	3185	3.361524132981	3
0	3192	3.370028132981	2
0	3192	3.370028132981	3
0	3200	3.378532132981	2
0	3206	3.388366393003	3
0	3210	3.396870393003	2
0	3219	3.399910536122	3
0	3236	3.408414536122	2
0	3236	3.408414536122	3
0	3244	3.416918536122	2
0	3244	3.416918536122	3
0	3249	3.425422536122	2
0	3249	3.425422536122	3
0	3258	3.433926536122	2
0	3265	3.455208273796	3
0	3272	3.463712273796	2
0	3272	3.463712273796	3
0	3284	3.472216273796	2
0	3284	3.472216273796	3
0	3289	3.480720273796	2
0	3299	3.483515408701	3
0	3311	3.492019408701	2
0	3311	3.492019408701	3
0	3320	3.500523408701	2
0	3320	3.500523408701	3
0	3325	3.509027408701	2
0	3335	3.511519205519	3
0	3343	3.520023205519	2
0	3343	3.520023205519	3
0	3363	3.528527205519	2
0	3363	3.528527205519	3
0	3368	3.537031205519	2
0	3368	3.537031205519	3
0	3377	3.545535205519	2
0	3377	3.545535205519	3
0	3386	3.554039205519	2
0	3386	3.554039205519	3
0	3395	3.562543205519	2
0	3402	3.594011881851	3
0	3406	3.602515881851	2
0	3416	3.632891437454	3
0	3419	3.641395437454	2
0	3429	3.661336088421	3
0	3432	3.669840088421	2
0	3441	3.679185245473	3
0	3453	3.687689245473	2
0	3453	3.687689245473	3
0	3469	3.696193245473	2
0	3469	3.696193245473	3
0	3483	3.704697245473	2
0	3483	3.704697245473	3
0	3500	3.713201245473	2
0	3500	3.713201245473	3
0	3505	3.721705245473	2
0	3505	3.721705245473	3
0	3518	3.730209245473	2
0	3518	3.730209245473	3
0	3535	3.738713245473	2
0	3535	3.738713245473	3
0	3544	3.747217245473	2
0	3544	3.747217245473	3
0	3557	3.755721245473	2
0	3557	3.755721245473	3
0	3570	3.764225245473	2
0	3570	3.764225245473	3
0	3579	3.772729245473	2
0	3579	3.772729245473	3
0	3588	3.781233245473	2
0	3588	3.781233245473	3
0	3593	3.789737245473	2
0	3593	3.789737245473	3
0	3606	3.798241245473	2
0	3606	3.798241245473	3
0	3616	3.806745245473	2
0	3616	3.806745245473	3
0	3637	3.815249245473	2
0	3637	3.815249245473	3
0	3650	3.823753245473	2
0	3650	3.823753245473	3
0	3663	3.832257245473	2
0	3663	3.832257245473	3
0	3668	3.840761245473	2
0	3668	3.840761245473	3
0	3681	3.849265245473	2
0	3681	3.849265245473	3
0	3690	3.857769245473	2
0	3690	3.857769245473	3
0	3707	3.866273245473	2
0	3707	3.866273245473	3
0	3716	3.874777245473	2
0	3716	3.874777245473	3
0	3725	3.883281245473	2
0	3725	3.883281245473	3
0	3738	3.891785245473	2
0	3738	3.891785245473	3
0	3748	3.900289245473	2
0	3748	3.900289245473	3
0	3757	3.908793245473	2
0	3757	3.908793245473	3
0	3766	3.917297245473	2
0	3766	3.917297245473	3
0	3775	3.925801245473	2
0	3775	3.925801245473	3
0	3784	3.934305245473	2
0	3784	3.934305245473	3
0	3797	3.942809245473	2
0	3797	3.942809245473	3
0	3810	3.951313245473	2
0	3810	3.951313245473	3
0	3819	3.959817245473	2
0	3819	3.959817245473	3
0	3836	3.968321245473	2
0	3836	3.968321245473	3
0	3845	3.976825245473	2
0	3845	3.976825245473	3
0	3862	3.985329245473	2
0	3862	3.985329245473	3
0	3867	3.993833245473	2
0	3867	3.993833245473	3
0	3885	4.002337245473	2
0	3885	4.002337245473	3
0	3894	4.010841245473	2
0	3894	4.010841245473	3
0	3907	4.019345245473	2
0	3907	4.019345245473	3
0	3916	4.027849245473	2
0	3916	4.027849245473	3
0	3925	4.036353245473	2
0	3925	4.036353245473	3
0	3930	4.044857245473	2
0	3930	4.044857245473	3
0	3939	4.053361245473	2
0	3939	4.053361245473	3
0	3948	4.061865245473	2
0	3948	4.061865245473	3
0	3957	4.070369245473	2
0	3957	4.070369245473	3
0	3970	4.078873245473	2
0	3970	4.078873245473	3
0	3983	4.087377245473	2
0	3983	4.087377245473	3
0	3992	4.095881245473	2
0	3992	4.095881245473	3
0	4006	4.104385245473	2
0	4006	4.104385245473	3
0	4015	4.112889245473	2
0	4015	4.112889245473	3
0	4032	4.121393245473	2
0	4032	4.121393245473	3
0	4041	4.129897245473	2
0	4041	4.129897245473	3
0	4050	4.138401245473	2
0	4050	4.138401245473	3
0	4055	4.146905245473	2
0	4055	4.146905245473	3
0	4064	4.155409245473	2
0	4064	4.155409245473	3
0	4077	4.163913245473	2
0	4077	4.163913245473	3
0	4086	4.172417245473	2
0	4086	4.172417245473	3
0	4091	4.180921245473	2
0	4091	4.180921245473	3
0	4100	4.189425245473	2
0	4105	4.190880830901	3
0	4109	4.199384830901	2
0	4120	4.200298875136	3
0	4127	4.208802875136	2
0	4127	4.208802875136	3
0	4136	4.217306875136	2
0	4143	4.233273729561	3
0	4150	4.241777729561	2
0	4150	4.241777729561	3
0	4158	4.250281729561	2
0	4164	4.256092523779	3
0	4172	4.264596523779	2
0	4172	4.264596523779	3
0	4180	4.273100523779	2
0	4187	4.290329389311	3
0	4190	4.298833389311	2
0	4200	4.30438455365	3
0	4204	4.31288855365	2
0	4213	4.318817119056	3
0	4221	4.327321119056	2
0	4221	4.327321119056	3
0	4229	4.335825119056	2
0	4235	4.34054749041	3
0	4239	4.34905149041	2
0	4248	4.352676720367	3
0	4260	4.361180720367	2
0	4260	4.361180720367	3
0	4268	4.369684720367	2
0	4268	4.369684720367	3
0	4277	4.378188720367	2
0	4277	4.378188720367	3
0	4286	4.386692720367	2
0	4294	4.415547956405	3
0	4301	4.424051956405	2
0	4301	4.424051956405	3
0	4309	4.432555956405	2
0	4314	4.433628918575	3
0	4318	4.442132918575	2
0	4329	4.457028641517	3
0	4336	4.465532641517	2
0	4336	4.465532641517	3
0	4344	4.474036641517	2
0	4352	4.500768643121	3
0	4355	4.509272643121	2
0	4364	4.511057864352	3
0	4368	4.519561864352	2
0	4378	4.531686696093	3
0	4381	4.540190696093	2
0	4391	4.560428853566	3
0	4394	4.568932853566	2
0	4404	4.580711673023	3
0	4411	4.589215673023	2
0	4411	4.589215673023	3
0	4423	4.597719673023	2
0	4423	4.597719673023	3
0	4437	4.606223673023	2
0	4437	4.606223673023	3
0	4454	4.614727673023	2
0	4454	4.614727673023	3
0	4459	4.623231673023	2
0	4459	4.623231673023	3
0	4468	4.631735673023	2
0	4468	4.631735673023	3
0	4481	4.640239673023	2
0	4481	4.640239673023	3
0	4490	4.648743673023	2
0	4490	4.648743673023	3
0	4495	4.657247673023	2
0	4506	4.673199466141	3
0	4513	4.681703466141	2
0	4513	4.681703466141	3
0	4533	4.690207466141	2
0	4533	4.690207466141	3
0	4542	4.698711466141	2
0	4542	4.698711466141	3
0	4552	4.707215466141	2
0	4552	4.707215466141	3
0	4557	4.715719466141	2
0	4557	4.715719466141	3
0	4566	4.724223466141	2
0	4571	4.72436341736	3
0	4579	4.73286741736	2
0	4579	4.73286741736	3
0	4588	4.74137141736	2
0	4595	4.760493645572	3
0	4598	4.768997645572	2
0	4608	4.784929175819	3
0	4615	4.793433175819	2
0	4615	4.793433175819	3
0	4632	4.801937175819	2
0	4632	4.801937175819	3
0	4637	4.810441175819	2
0	4637	4.810441175819	3
0	4662	4.818945175819	2
0	4662	4.818945175819	3
0	4679	4.827449175819	2
0	4679	4.827449175819	3
0	4704	4.835953175819	2
0	4704	4.835953175819	3
0	4709	4.844457175819	2
0	4709	4.844457175819	3
0	4722	4.852961175819	2
0	4722	4.852961175819	3
0	4727	4.861465175819	2
0	4727	4.861465175819	3
0	4736	4.869969175819	2
0	4736	4.869969175819	3
0	4741	4.878473175819	2
0	4741	4.878473175819	3
0	4750	4.886977175819	2
0	4750	4.886977175819	3
0	4759	4.895481175819	2
0	4759	4.895481175819	3
0	4769	4.903985175819	2
0	4769	4.903985175819	3
0	4774	4.912489175819	2
0	4774	4.912489175819	3
0	4783	4.920993175819	2
0	4783	4.920993175819	3
0	4788	4.929497175819	2
0	4799	4.944167199513	3
0	4810	4.952671199513	2
0	4810	4.952671199513	3
0	4818	4.961175199513	2
0	4818	4.961175199513	3
0	4827	4.969679199513	2
0	4827	4.969679199513	3
0	4840	4.978183199513	2
0	4840	4.978183199513	3
0	4845	4.986687199513	2
0	4857	5.027493908655	3
0	4864	5.035997908655	2
0	4864	5.035997908655	3
0	4872	5.044501908655	2
0	4878	5.046651584987	3
0	4890	5.055155584987	2
0	4890	5.055155584987	3
0	4898	5.063659584987	2
0	4898	5.063659584987	3
0	4911	5.072163584987	2
0	4911	5.072163584987	3
0	4920	5.080667584987	2
0	4920	5.080667584987	3
0	4929	5.089171584987	2
0	4929	5.089171584987	3
0	4942	5.097675584987	2
0	4942	5.097675584987	3
0	4952	5.106179584987	2
0	4952	5.106179584987	3
0	4969	5.114683584987	2
0	4969	5.114683584987	3
0	4974	5.123187584987	2
0	4974	5.123187584987	3
0	4987	5.131691584987	2
0	4987	5.131691584987	3
0	5000	5.140195584987	2
0	5000	5.140195584987	3
0	5009	5.148699584987	2
0	5009	5.148699584987	3
0	5014	5.157203584987	2
0	5024	5.160437370677	3
0	5028	5.168941370677	2
0	5038	5.191515284423	3
0	5050	5.200019284423	2
0	5050	5.200019284423	3
0	5062	5.208523284423	2
0	5062	5.208523284423	3
0	5067	5.217027284423	2
0	5067	5.217027284423	3
0	5080	5.225531284423	2
0	5080	5.225531284423	3
0	5085	5.234035284423	2
0	5096	5.271442763227	3
0	5099	5.279946763227	2
0	5110	5.313117031698	3
0	5113	5.321621031698	2
0	5123	5.341357048915	3
0	5130	5.349861048915	2
0	5130	5.349861048915	3
0	5138	5.358365048915	2
0	5146	5.403534900516	3
0	5157	5.412038900516	2
0	5157	5.412038900516	3
0	5165	5.420542900516	2
0	5165	5.420542900516	3
0	5170	5.429046900516	2
0	5181	5.444500763421	3
0	5188	5.453004763421	2
0	5188	5.453004763421	3
0	5196	5.461508763421	2
0	5201	5.461735790769	3
0	5209	5.470239790769	2
0	5209	5.470239790769	3
0	5222	5.478743790769	2
0	5222	5.478743790769	3
0	5227	5.487247790769	2
0	5239	5.503817316906	3
0	5246	5.512321316906	2
0	5246	5.512321316906	3
0	5262	5.520825316906	2
0	5262	5.520825316906	3
0	5267	5.529329316906	2
0	5267	5.529329316906	3
0	5280	5.537833316906	2
0	5280	5.537833316906	3
0	5293	5.546337316906	2
0	5293	5.546337316906	3
0	5310	5.554841316906	2
0	5310	5.554841316906	3
0	5315	5.563345316906	2
0	5315	5.563345316906	3
0	5324	5.571849316906	2
0	5324	5.571849316906	3
0	5337	5.580353316906	2
0	5337	5.580353316906	3
0	5350	5.588857316906	2
0	5350	5.588857316906	3
0	5355	5.597361316906	2
0	5355	5.597361316906	3
0	5365	5.605865316906	2
0	5372	5.620445508973	3
0	5375	5.628949508973	2
0	5384	5.632506896756	3
0	5388	5.641010896756	2
0	5398	5.656741910795	3
0	5401	5.665245910795	2
0	5411	5.690544851555	3
0	5414	5.699048851555	2
0	5424	5.707217153638	3
0	5428	5.715721153638	2
0	5437	5.721647841775	3
0	5441	5.730151841775	2
0	5451	5.762939170346	3
0	5454	5.771443170346	2
0	5465	5.825160723422	3
0	5476	5.833664723422	2
0	5476	5.833664723422	3
0	5492	5.842168723422	2
0	5492	5.842168723422	3
0	5505	5.850672723422	2
0	5505	5.850672723422	3
0	5518	5.859176723422	2
0	5518	5.859176723422	3
0	5527	5.867680723422	2
0	5527	5.867680723422	3
0	5536	5.876184723422	2
0	5536	5.876184723422	3
0	5541	5.884688723422	2
0	5541	5.884688723422	3
0	5554	5.893192723422	2
0	5554	5.893192723422	3
0	5560	5.901696723422	2
0	5560	5.901696723422	3
0	5569	5.910200723422	2
0	5576	5.932798914007	3
0	5579	5.941302914007	2
0	5588	5.942298223142	3
0	5595	5.950802223142	2
0	5595	5.950802223142	3
0	5608	5.959306223142	2
0	5608	5.959306223142	3
0	5613	5.967810223142	2
0	5624	5.984167464234	3
0	5631	5.992671464234	2
0	5631	5.992671464234	3
0	5644	6.001175464234	2
0	5644	6.001175464234	3
0	5653	6.009679464234	2
0	5653	6.009679464234	3
0	5670	6.018183464234	2
0	5670	6.018183464234	3
0	5679	6.026687464234	2
0	5679	6.026687464234	3
0	5696	6.035191464234	2
0	5696	6.035191464234	3
0	5705	6.043695464234	2
0	5705	6.043695464234	3
0	5718	6.052199464234	2
0	5718	6.052199464234	3
0	5723	6.060703464234	2
0	5723	6.060703464234	3
0	5736	6.069207464234	2
0	5736	6.069207464234	3
0	5745	6.077711464234	2
0	5745	6.077711464234	3
0	5754	6.086215464234	2
0	5754	6.086215464234	3
0	5759	6.094719464234	2
0	5770	6.100694534439	3
0	5774	6.109198534439	2
0	5784	6.124488285402	3
0	5795	6.132992285402	2
0	5795	6.132992285402	3
0	5811	6.141496285402	2
0	5811	6.141496285402	3
0	5820	6.150000285402	2
0	5820	6.150000285402	3
0	5833	6.158504285402	2
0	5833	6.158504285402	3
0	5838	6.167008285402	2
0	5838	6.167008285402	3
0	5851	6.175512285402	2
0	5851	6.175512285402	3
0	5860	6.184016285402	2
0	5860	6.184016285402	3
0	5869	6.192520285402	2
0	5869	6.192520285402	3
0	5879	6.201024285402	2
0	5879	6.201024285402	3
0	5896	6.209528285402	2
0	5896	6.209528285402	3
0	5901	6.218032285402	2
0	5901	6.218032285402	3
0	5914	6.226536285402	2
0	5914	6.226536285402	3
0	5919	6.235040285402	2
0	5930	6.24524912426	3
0	5933	6.25375312426	2
0	5942	6.254663804623	3
0	5953	6.263167804623	2
0	5953	6.263167804623	3
0	5962	6.271671804623	2
0	5962	6.271671804623	3
0	5979	6.280175804623	2
0	5979	6.280175804623	3
0	5992	6.288679804623	2
0	5992	6.288679804623	3
0	5997	6.297183804623	2
0	5997	6.297183804623	3
0	6007	6.305687804623	2
0	6007	6.305687804623	3
0	6012	6.314191804623	2
0	6022	6.319282052842	3
0	6038	6.327786052842	2
0	6038	6.327786052842	3
0	6050	6.336290052842	2
0	6050	6.336290052842	3
0	6059	6.344794052842	2
0	6059	6.344794052842	3
0	6080	6.353298052842	2
0	6080	6.353298052842	3
0	6085	6.361802052842	2
0	6085	6.361802052842	3
0	6098	6.370306052842	2
0	6098	6.370306052842	3
0	6107	6.378810052842	2
0	6107	6.378810052842	3
0	6116	6.387314052842	2
0	6116	6.387314052842	3
0	6125	6.395818052842	2
0	6125	6.395818052842	3
0	6135	6.404322052842	2
0	6135	6.404322052842	3
0	6140	6.412826052842	2
0	6140	6.412826052842	3
0	6149	6.421330052842	2
0	6155	6.425536554306	3
0	6163	6.434040554306	2
0	6163	6.434040554306	3
0	6175	6.442544554306	2
0	6175	6.442544554306	3
0	6184	6.451048554306	2
0	6184	6.451048554306	3
0	6193	6.459552554306	2
0	6198	6.45974077649	3
0	6202	6.46824477649	2
0	6213	6.499228562453	3
0	6221	6.507732562453	2
0	6221	6.507732562453	3
0	6233	6.516236562453	2
0	6233	6.516236562453	3
0	6238	6.524740562453	2
0	6248	6.53390392803	3
0	6252	6.54240792803	2
0	6261	6.54245940578	3
0	6268	6.55096340578	2
0	6268	6.55096340578	3
0	6277	6.55946740578	2
0	6283	6.566112238789	3
0	6295	6.574616238789	2
0	6295	6.574616238789	3
0	6303	6.583120238789	2
0	6303	6.583120238789	3
0	6312	6.591624238789	2
0	6312	6.591624238789	3
0	6330	6.600128238789	2
0	6330	6.600128238789	3
0	6343	6.608632238789	2
0	6343	6.608632238789	3
0	6352	6.617136238789	2
0	6352	6.617136238789	3
0	6361	6.625640238789	2
0	6361	6.625640238789	3
0	6370	6.634144238789	2
0	6370	6.634144238789	3
0	6375	6.642648238789	2
0	6385	6.645814556979	3
0	6389	6.654318556979	2
0	6398	6.65738855412	3
0	6406	6.66589255412	2
0	6406	6.66589255412	3
0	6414	6.67439655412	2
0	6422	6.706405042781	3
0	6425	6.714909042781	2
0	6435	6.731053672587	3
0	6442	6.739557672587	2
0	6442	6.739557672587	3
0	6450	6.748061672587	2
0	6457	6.77010312799	3
0	6460	6.77860712799	2
0	6469	6.779457548336	3
0	6472	6.787961548336	2
0	6484	6.81027273988	3
0	6487	6.81877673988	2
0	6497	6.831528979712	3
0	6500	6.840032979712	2
0	6510	6.872941101264	3
0	6513	6.881445101264	2
0	6524	6.9032173108	3
0	6535	6.9117213108	2
0	6535	6.9117213108	3
0	6547	6.9202253108	2
0	6547	6.9202253108	3
0	6552	6.9287293108	2
0	6552	6.9287293108	3
0	6561	6.9372333108	2
0	6568	6.948351770859	3
0	6579	6.956855770859	2
0	6579	6.956855770859	3
0	6587	6.965359770859	2
0	6587	6.965359770859	3
0	6592	6.973863770859	2
0	6602	6.980822083898	3
0	6610	6.989326083898	2
0	6610	6.989326083898	3
0	6618	6.997830083898	2
0	6626	7.016533101444	3
0	6633	7.025037101444	2
0	6633	7.025037101444	3
0	6645	7.033541101444	2
0	6645	7.033541101444	3
0	6658	7.042045101444	2
0	6658	7.042045101444	3
0	6667	7.050549101444	2
0	6667	7.050549101444	3
0	6688	7.059053101444	2
0	6688	7.059053101444	3
0	6701	7.067557101444	2
0	6701	7.067557101444	3
0	6706	7.076061101444	2
0	6706	7.076061101444	3
0	6715	7.084565101444	2
0	6715	7.084565101444	3
0	6724	7.093069101444	2
0	6724	7.093069101444	3
0	6734	7.101573101444	2
0	6734	7.101573101444	3
0	6743	7.110077101444	2
0	6743	7.110077101444	3
0	6752	7.118581101444	2
0	6759	7.13139004756	3
0	6762	7.13989404756	2
0	6771	7.144788270443	3
0	6775	7.153292270443	2
0	6784	7.153821506267	3
0	6791	7.162325506267	2
0	6791	7.162325506267	3
0	6800	7.170829506267	2
0	6808	7.232528993545	3
0	6815	7.241032993545	2
0	6815	7.241032993545	3
0	6827	7.249536993545	2
0	6827	7.249536993545	3
0	6836	7.258040993545	2
0	6836	7.258040993545	3
0	6845	7.266544993545	2
0	6852	7.29792504535	3
0	6864	7.30642904535	2
0	6864	7.30642904535	3
0	6872	7.31493304535	2
0	6872	7.31493304535	3
0	6885	7.32343704535	2
0	6885	7.32343704535	3
0	6898	7.33194104535	2
0	6898	7.33194104535	3
0	6907	7.34044504535	2
0	6907	7.34044504535	3
0	6924	7.34894904535	2
0	6924	7.34894904535	3
0	6933	7.35745304535	2
0	6933	7.35745304535	3
0	6946	7.36595704535	2
0	6946	7.36595704535	3
0	6959	7.37446104535	2
0	6959	7.37446104535	3
0	6968	7.38296504535	2
0	6968	7.38296504535	3
0	6973	7.39146904535	2
0	6973	7.39146904535	3
0	6982	7.39997304535	2
0	6982	7.39997304535	3
0	6988	7.40847704535	2
0	6998	7.414464726996	3
0	7014	7.422968726996	2
0	7014	7.422968726996	3
0	7022	7.431472726996	2
0	7022	7.431472726996	3
0	7031	7.439976726996	2
0	7031	7.439976726996	3
0	7044	7.448480726996	2
0	7044	7.448480726996	3
0	7053	7.456984726996	2
0	7053	7.456984726996	3
0	7062	7.465488726996	2
0	7062	7.465488726996	3
0	7067	7.473992726996	2
0	7079	7.538975951237	3
0	7086	7.547479951237	2
0	7086	7.547479951237	3
0	7094	7.555983951237	2
0	7100	7.559516370432	3
0	7104	7.568020370432	2
0	7113	7.571695877932	3
0	7117	7.580199877932	2
0	7127	7.591819094728	3
0	7131	7.600323094728	2
0	7141	7.636688876464	3
0	7144	7.645192876464	2
0	7154	7.66315368611	3
0	7157	7.67165768611	2
0	7166	7.680509376976	3
0	7170	7.689013376976	2
0	7179	7.69488719363	3
0	7196	7.70339119363	2
0	7196	7.70339119363	3
0	7208	7.71189519363	2
0	7208	7.71189519363	3
0	7217	7.72039919363	2
0	7217	7.72039919363	3
0	7230	7.72890319363	2
0	7230	7.72890319363	3
0	7235	7.73740719363	2
0	7235	7.73740719363	3
0	7248	7.74591119363	2
0	7248	7.74591119363	3
0	7253	7.75441519363	2
0	7253	7.75441519363	3
0	7262	7.76291919363	2
0	7269	7.777512799306	3
0	7280	7.786016799306	2
0	7280	7.786016799306	3
0	7292	7.794520799306	2
0	7292	7.794520799306	3
0	7298	7.803024799306	2
0	7298	7.803024799306	3
0	7311	7.811528799306	2
0	7311	7.811528799306	3
0	7316	7.820032799306	2
0	7327	7.830093665652	3
0	7330	7.838597665652	2
0	7340	7.863048688095	3
0	7343	7.871552688095	2
0	7354	7.912247899607	3
0	7361	7.920751899607	2
0	7361	7.920751899607	3
0	7377	7.929255899607	2
0	7377	7.929255899607	3
0	7382	7.937759899607	2
0	7382	7.937759899607	3
0	7395	7.946263899607	2
0	7395	7.946263899607	3
0	7404	7.954767899607	2
0	7404	7.954767899607	3
0	7413	7.963271899607	2
0	7420	7.976499221628	3
0	7427	7.985003221628	2
0	7427	7.985003221628	3
0	7439	7.993507221628	2
0	7439	7.993507221628	3
0	7457	8.002011221628	2
0	7457	8.002011221628	3
0	7466	8.010515221628	2
0	7466	8.010515221628	3
0	7471	8.019019221628	2
0	7471	8.019019221628	3
0	7488	8.027523221628	2
0	7488	8.027523221628	3
0	7501	8.036027221628	2
0	7501	8.036027221628	3
0	7514	8.044531221628	2
0	7514	8.044531221628	3
0	7519	8.053035221628	2
0	7519	8.053035221628	3
0	7528	8.061539221628	2
0	7528	8.061539221628	3
0	7533	8.070043221628	2
0	7544	8.089614223491	3
0	7551	8.098118223491	2
0	7551	8.098118223491	3
0	7560	8.106622223491	2
0	7567	8.119577293878	3
0	7578	8.128081293878	2
0	7578	8.128081293878	3
0	7590	8.136585293878	2
0	7590	8.136585293878	3
0	7599	8.145089293878	2
0	7599	8.145089293878	3
0	7612	8.153593293878	2
0	7612	8.153593293878	3
0	7621	8.162097293878	2
0	7621	8.162097293878	3
0	7630	8.170601293878	2
0	7630	8.170601293878	3
0	7639	8.179105293878	2
0	7639	8.179105293878	3
0	7652	8.187609293878	2
0	7652	8.187609293878	3
0	7665	8.196113293878	2
0	7665	8.196113293878	3
0	7675	8.204617293878	2
0	7675	8.204617293878	3
0	7688	8.213121293878	2
0	7688	8.213121293878	3
0	7697	8.221625293878	2
0	7697	8.221625293878	3
0	7706	8.230129293878	2
0	7706	8.230129293878	3
0	7715	8.238633293878	2
0	7721	8.241536153665	3
0	7725	8.250040153665	2
0	7734	8.257086687463	3
0	7738	8.265590687463	2
0	7747	8.266325030693	3
0	7758	8.274829030693	2
0	7758	8.274829030693	3
0	7771	8.283333030693	2
0	7771	8.283333030693	3
0	7784	8.291837030693	2
0	7784	8.291837030693	3
0	7794	8.300341030693	2
0	7794	8.300341030693	3
0	7807	8.308845030693	2
0	7807	8.308845030693	3
0	7820	8.317349030693	2
0	7820	8.317349030693	3
0	7825	8.325853030693	2
0	7825	8.325853030693	3
0	7838	8.334357030693	2
0	7838	8.334357030693	3
0	7847	8.342861030693	2
0	7847	8.342861030693	3
0	7856	8.351365030693	2
0	7856	8.351365030693	3
0	7861	8.359869030693	2
0	7872	8.378866852484	3
0	7879	8.387370852484	2
0	7879	8.387370852484	3
0	7887	8.395874852484	2
0	7894	8.404399199966	3
0	7902	8.412903199966	2
0	7902	8.412903199966	3
0	7918	8.421407199966	2
0	7918	8.421407199966	3
0	7927	8.429911199966	2
0	7927	8.429911199966	3
0	7948	8.438415199966	2
0	7948	8.438415199966	3
0	7957	8.446919199966	2
0	7957	8.446919199966	3
0	7966	8.455423199966	2
0	7966	8.455423199966	3
0	7971	8.463927199966	2
0	7971	8.463927199966	3
0	7984	8.472431199966	2
0	7984	8.472431199966	3
0	8005	8.480935199966	2
0	8005	8.480935199966	3
0	8034	8.489439199966	2
0	8034	8.489439199966	3
0	8039	8.497943199966	2
0	8039	8.497943199966	3
0	8049	8.506447199966	2
0	8049	8.506447199966	3
0	8062	8.514951199966	2
0	8062	8.514951199966	3
0	8071	8.523455199966	2
0	8071	8.523455199966	3
0	8080	8.531959199966	2
0	8080	8.531959199966	3
0	8089	8.540463199966	2
0	8089	8.540463199966	3
0	8102	8.548967199966	2
0	8102	8.548967199966	3
0	8119	8.557471199966	2
0	8119	8.557471199966	3
0	8128	8.565975199966	2
0	8128	8.565975199966	3
0	8141	8.574479199966	2
0	8141	8.574479199966	3
0	8150	8.582983199966	2
0	8150	8.582983199966	3
0	8159	8.591487199966	2
0	8159	8.591487199966	3
0	8168	8.599991199966	2
0	8168	8.599991199966	3
0	8178	8.608495199966	2
0	8178	8.608495199966	3
0	8187	8.616999199966	2
0	8187	8.616999199966	3
0	8196	8.625503199966	2
0	8196	8.625503199966	3
0	8201	8.634007199966	2
0	8201	8.634007199966	3
0	8218	8.642511199966	2
0	8218	8.642511199966	3
0	8223	8.651015199966	2
0	8223	8.651015199966	3
0	8232	8.659519199966	2
0	8232	8.659519199966	3
0	8237	8.668023199966	2
0	8237	8.668023199966	3
0	8254	8.676527199966	2
0	8254	8.676527199966	3
0	8259	8.685031199966	2
0	8259	8.685031199966	3
0	8268	8.693535199966	2
0	8268	8.693535199966	3
0	8278	8.702039199966	2
0	8278	8.702039199966	3
0	8287	8.710543199966	2
0	8293	8.713791191598	3
0	8297	8.722295191598	2
0	8307	8.766231188615	3
0	8310	8.774735188615	2
0	8319	8.783320760803	3
0	8327	8.791824760803	2
0	8327	8.791824760803	3
0	8340	8.800328760803	2
0	8340	8.800328760803	3
0	8353	8.808832760803	2
0	8353	8.808832760803	3
0	8366	8.817336760803	2
0	8366	8.817336760803	3
0	8375	8.825840760803	2
0	8375	8.825840760803	3
0	8388	8.834344760803	2
0	8388	8.834344760803	3
0	8397	8.842848760803	2
0	8397	8.842848760803	3
0	8422	8.851352760803	2
0	8422	8.851352760803	3
0	8427	8.859856760803	2
0	8427	8.859856760803	3
0	8436	8.868360760803	2
0	8436	8.868360760803	3
0	8441	8.876864760803	2
0	8441	8.876864760803	3
0	8450	8.885368760803	2
0	8450	8.885368760803	3
0	8463	8.893872760803	2
0	8463	8.893872760803	3
0	8477	8.902376760803	2
0	8477	8.902376760803	3
0	8490	8.910880760803	2
0	8490	8.910880760803	3
0	8499	8.919384760803	2
0	8499	8.919384760803	3
0	8504	8.927888760803	2
0	8504	8.927888760803	3
0	8517	8.936392760803	2
0	8517	8.936392760803	3
0	8522	8.944896760803	2
0	8532	8.948868625561	3
0	8536	8.957372625561	2
0	8546	8.989583794137	3
0	8553	8.998087794137	2
0	8553	8.998087794137	3
0	8566	9.006591794137	2
0	8566	9.006591794137	3
0	8575	9.015095794137	2
0	8575	9.015095794137	3
0	8584	9.023599794137	2
0	8591	9.043994329977	3
0	8594	9.052498329977	2
0	8603	9.052821011036	3
0	8610	9.061325011036	2
0	8610	9.061325011036	3
0	8619	9.069829011036	2
0	8626	9.081737536936	3
0	8637	9.090241536936	2
0	8637	9.090241536936	3
0	8653	9.098745536936	2
0	8653	9.098745536936	3
0	8659	9.107249536936	2
0	8659	9.107249536936	3
0	8668	9.115753536936	2
0	8668	9.115753536936	3
0	8677	9.124257536936	2
0	8677	9.124257536936	3
0	8690	9.132761536936	2
0	8690	9.132761536936	3
0	8703	9.141265536936	2
0	8703	9.141265536936	3
0	8712	9.149769536936	2
0	8712	9.149769536936	3
0	8717	9.158273536936	2
0	8727	9.163680452625	3
0	8731	9.172184452625	2
0	8741	9.198491361119	3
0	8745	9.206995361119	2
0	8755	9.256267737116	3
0	8762	9.264771737116	2
0	8762	9.264771737116	3
0	8770	9.273275737116	2
0	8778	9.302570150488	3
0	8781	9.311074150488	2
0	8791	9.321405810743	3
0	8794	9.329909810743	2
0	8803	9.334918444315	3
0	8819	9.343422444315	2
0	8819	9.343422444315	3
0	8827	9.351926444315	2
0	8827	9.351926444315	3
0	8832	9.360430444315	2
0	8832	9.360430444315	3
0	8841	9.368934444315	2
0	8847	9.374124771808	3
0	8855	9.382628771808	2
0	8855	9.382628771808	3
0	8867	9.391132771808	2
0	8867	9.391132771808	3
0	8876	9.399636771808	2
0	8876	9.399636771808	3
0	8886	9.408140771808	2
0	8892	9.411789337981	3
0	8896	9.420293337981	2
0	8906	9.43410221685	3
0	8917	9.44260621685	2
0	8917	9.44260621685	3
0	8925	9.45111021685	2
0	8925	9.45111021685	3
0	8930	9.45961421685	2
0	8940	9.464786619077	3
0	8944	9.473290619077	2
0	8954	9.48523379833	3
0	8969	9.49373779833	2
0	8969	9.49373779833	3
0	8990	9.50224179833	2
0	8990	9.50224179833	3
0	8995	9.51074579833	2
0	8995	9.51074579833	3
0	9012	9.51924979833	2
0	9012	9.51924979833	3
0	9025	9.52775379833	2
0	9025	9.52775379833	3
0	9034	9.53625779833	2
0	9034	9.53625779833	3
0	9039	9.54476179833	2
0	9039	9.54476179833	3
0	9048	9.55326579833	2
0	9048	9.55326579833	3
0	9053	9.56176979833	2
0	9053	9.56176979833	3
0	9062	9.57027379833	2
0	9062	9.57027379833	3
0	9071	9.57877779833	2
0	9071	9.57877779833	3
0	9080	9.58728179833	2
0	9088	9.604784843661	3
0	9095	9.613288843661	2
0	9095	9.613288843661	3
0	9111	9.621792843661	2
0	9111	9.621792843661	3
0	9124	9.630296843661	2
0	9124	9.630296843661	3
0	9137	9.638800843661	2
0	9137	9.638800843661	3
0	9146	9.647304843661	2
0	9146	9.647304843661	3
0	9159	9.655808843661	2
0	9159	9.655808843661	3
0	9164	9.664312843661	2
0	9164	9.664312843661	3
0	9177	9.672816843661	2
0	9177	9.672816843661	3
0	9182	9.681320843661	2
0	9182	9.681320843661	3
0	9195	9.689824843661	2
0	9195	9.689824843661	3
0	9200	9.698328843661	2
0	9212	9.721927110054	3
0	9219	9.730431110054	2
0	9219	9.730431110054	3
0	9227	9.738935110054	2
0	9234	9.754472021242	3
0	9237	9.762976021242	2
0	9246	9.772106421032	3
0	9254	9.780610421032	2
0	9254	9.780610421032	3
0	9266	9.789114421032	2
0	9266	9.789114421032	3
0	9275	9.797618421032	2
0	9275	9.797618421032	3
0	9285	9.806122421032	2
0	9292	9.818058958904	3
0	9307	9.826562958904	2
0	9307	9.826562958904	3
0	9319	9.835066958904	2
0	9319	9.835066958904	3
0	9324	9.843570958904	2
0	9324	9.843570958904	3
0	9337	9.852074958904	2
0	9337	9.852074958904	3
0	9346	9.860578958904	2
0	9346	9.860578958904	3
0	9363	9.869082958904	2
0	9363	9.869082958904	3
0	9380	9.877586958904	2
0	9380	9.877586958904	3
0	9389	9.886090958904	2
0	9389	9.886090958904	3
0	9394	9.894594958904	2
0	9394	9.894594958904	3
0	9404	9.903098958904	2
0	9404	9.903098958904	3
0	9417	9.911602958904	2
0	9417	9.911602958904	3
0	9426	9.920106958904	2
0	9426	9.920106958904	3
0	9431	9.928610958904	2
0	9431	9.928610958904	3
0	9444	9.937114958904	2
0	9444	9.937114958904	3
0	9449	9.945618958904	2
0	9459	9.952813483804	3
0	9467	9.961317483804	2
0	9467	9.961317483804	3
0	9483	9.969821483804	2
0	9483	9.969821483804	3
0	9488	9.978325483804	2
0	9488	9.978325483804	3
0	9501	9.986829483804	2
0	9501	9.986829483804	3
0	9510	9.995333483804	2
0	9510	9.995333483804	3
0	9520	10.003837483804	2
0	9527	10.01538247145	3
0	9534	10.02388647145	2
0	9534	10.02388647145	3
0	9542	10.03239047145	2
0	9549	10.052777330447	3
0	9560	10.061281330447	2
0	9560	10.061281330447	3
0	9568	10.069785330447	2
0	9568	10.069785330447	3
0	9577	10.078289330447	2
0	9577	10.078289330447	3
0	9598	10.086793330447	2
0	9598	10.086793330447	3
0	9603	10.095297330447	2
0	9603	10.095297330447	3
0	9617	10.103801330447	2
0	9617	10.103801330447	3
0	9626	10.112305330447	2
0	9626	10.112305330447	3
0	9635	10.120809330447	2
0	9635	10.120809330447	3
0	9640	10.129313330447	2
0	9650	10.136511199092	3
0	9654	10.145015199092	2
0	9663	10.152370280366	3
0	9671	10.160874280366	2
0	9671	10.160874280366	3
0	9683	10.169378280366	2
0	9683	10.169378280366	3
0	9692	10.177882280366	2
0	9692	10.177882280366	3
0	9701	10.186386280366	2
0	9708	10.199392059481	3
0	9712	10.207896059481	2
0	9721	10.215431991946	3
0	9729	10.223935991946	2
0	9729	10.223935991946	3
0	9741	10.232439991946	2
0	9741	10.232439991946	3
0	9746	10.240943991946	2
0	9757	10.259945303094	3
0	9760	10.268449303094	2
0	9769	10.274818668999	3
0	9777	10.283322668999	2
0	9777	10.283322668999	3
0	9793	10.291826668999	2
0	9793	10.291826668999	3
0	9803	10.300330668999	2
0	9803	10.300330668999	3
0	9812	10.308834668999	2
0	9812	10.308834668999	3
0	9817	10.317338668999	2
0	9827	10.325433591871	3
0	9831	10.333937591871	2
0	9841	10.356248664508	3
0	9848	10.364752664508	2
0	9848	10.364752664508	3
0	9860	10.373256664508	2
0	9860	10.373256664508	3
0	9869	10.381760664508	2
0	9869	10.381760664508	3
0	9878	10.390264664508	2
0	9886	10.415845650437	3
0	9897	10.424349650437	2
0	9897	10.424349650437	3
0	9905	10.432853650437	2
0	9905	10.432853650437	3
0	9910	10.441357650437	2
0	9920	10.44614379017	3
0	9928	10.45464779017	2
0	9928	10.45464779017	3
0	9936	10.46315179017	2
0	9943	10.481775526228	3
0	9950	10.490279526228	2
0	9950	10.490279526228	3
0	9966	10.498783526228	2
0	9966	10.498783526228	3
0	9976	10.507287526228	2
0	9976	10.507287526228	3
0	9989	10.515791526228	2
0	9989	10.515791526228	3
0	10002	10.524295526228	2
0	10002	10.524295526228	3
0	10011	10.532799526228	2
0	10011	10.532799526228	3
0	10016	10.541303526228	2
0	10016	10.541303526228	3
0	10025	10.549807526228	2
0	10031	10.551472165921	3
0	10035	10.559976165921	2
0	10044	10.567261936702	3
0	10048	10.575765936702	2
0	10057	10.582865406406	3
0	10065	10.591369406406	2
0	10065	10.591369406406	3
0	10077	10.599873406406	2
0	10077	10.599873406406	3
0	10083	10.608377406406	2
0	10093	10.615443424712	3
0	10097	10.623947424712	2
0	10107	10.634494976163	3
0	10114	10.642998976163	2
0	10114	10.642998976163	3
0	10122	10.651502976163	2
0	10128	10.657245550876	3
0	10132	10.665749550876	2
0	10141	10.673222403081	3
0	10149	10.681726403081	2
0	10149	10.681726403081	3
0	10157	10.690230403081	2
0	10163	10.699167420259	3
0	10172	10.707671420259	2
0	10172	10.707671420259	3
0	10184	10.716175420259	2
0	10184	10.716175420259	3
0	10193	10.724679420259	2
0	10193	10.724679420259	3
0	10206	10.733183420259	2
0	10206	10.733183420259	3
0	10211	10.741687420259	2
0	10220	10.743003746849	3
0	10228	10.751507746849	2
0	10228	10.751507746849	3
0	10237	10.760011746849	2
0	10244	10.775467711484	3
0	10247	10.783971711484	2
0	10256	10.787325495322	3
0	10264	10.795829495322	2
0	10264	10.795829495322	3
0	10277	10.804333495322	2
0	10277	10.804333495322	3
0	10282	10.812837495322	2
0	10292	10.819934326728	3
0	10304	10.828438326728	2
0	10304	10.828438326728	3
0	10316	10.836942326728	2
0	10316	10.836942326728	3
0	10321	10.845446326728	2
0	10321	10.845446326728	3
0	10334	10.853950326728	2
0	10334	10.853950326728	3
0	10339	10.862454326728	2
0	10350	10.883800759415	3
0	10361	10.892304759415	2
0	10361	10.892304759415	3
0	10378	10.900808759415	2
0	10378	10.900808759415	3
0	10383	10.909312759415	2
0	10383	10.909312759415	3
0	10392	10.917816759415	2
0	10392	10.917816759415	3
0	10405	10.926320759415	2
0	10405	10.926320759415	3
0	10414	10.934824759415	2
0	10414	10.934824759415	3
0	10419	10.943328759415	2
0	10430	10.969571621382	3
0	10437	10.978075621382	2
0	10437	10.978075621382	3
0	10445	10.986579621382	2
0	10451	10.994683306469	3
0	10456	11.003187306469	2
0	10465	11.004713837279	3
0	10473	11.013217837279	2
0	10473	11.013217837279	3
0	10485	11.021721837279	2
0	10485	11.021721837279	3
0	10490	11.030225837279	2
0	10500	11.032241832784	3
0	10508	11.040745832784	2
0	10508	11.040745832784	3
0	10516	11.049249832784	2
0	10521	11.049625857806	3
0	10525	11.058129857806	2
0	10534	11.058366825511	3
0	10542	11.066870825511	2
0	10542	11.066870825511	3
0	10551	11.075374825511	2
0	10558	11.094100384513	3
0	10562	11.102604384513	2
0	10571	11.103806988776	3
0	10574	11.112310988776	2
0	10585	11.124850956984	3
0	10588	11.133354956984	2
0	10597	11.140367820239	3
0	10605	11.148871820239	2
0	10605	11.148871820239	3
0	10613	11.157375820239	2
0	10618	11.158639145618	3
0	10626	11.167143145618	2
0	10626	11.167143145618	3
0	10635	11.175647145618	2
0	10642	11.189587686994	3
0	10657	11.198091686994	2
0	10657	11.198091686994	3
0	10670	11.206595686994	2
0	10670	11.206595686994	3
0	10675	11.215099686994	2
0	10675	11.215099686994	3
0	10684	11.223603686994	2
0	10684	11.223603686994	3
0	10701	11.232107686994	2
0	10701	11.232107686994	3
0	10714	11.240611686994	2
0	10714	11.240611686994	3
0	10719	11.249115686994	2
0	10719	11.249115686994	3
0	10736	11.257619686994	2
0	10736	11.257619686994	3
0	10749	11.266123686994	2
0	10749	11.266123686994	3
0	10758	11.274627686994	2
0	10758	11.274627686994	3
0	10771	11.283131686994	2
0	10771	11.283131686994	3
0	10784	11.291635686994	2
0	10784	11.291635686994	3
0	10790	11.300139686994	2
0	10790	11.300139686994	3
0	10807	11.308643686994	2
0	10807	11.308643686994	3
0	10812	11.317147686994	2
0	10812	11.317147686994	3
0	10825	11.325651686994	2
0	10825	11.325651686994	3
0	10830	11.334155686994	2
0	10830	11.334155686994	3
0	10839	11.342659686994	2
0	10839	11.342659686994	3
0	10852	11.351163686994	2
0	10852	11.351163686994	3
0	10861	11.359667686994	2
0	10861	11.359667686994	3
0	10866	11.368171686994	2
0	10877	11.389370622169	3
0	10888	11.397874622169	2
0	10888	11.397874622169	3
0	10905	11.406378622169	2
0	10905	11.406378622169	3
0	10914	11.414882622169	2
0	10914	11.414882622169	3
0	10927	11.423386622169	2
0	10927	11.423386622169	3
0	10932	11.431890622169	2
0	10932	11.431890622169	3
0	10941	11.440394622169	2
0	10941	11.440394622169	3
0	10950	11.448898622169	2
0	10950	11.448898622169	3
0	10959	11.457402622169	2
0	10966	11.469281165422	3
0	10973	11.477785165422	2
0	10973	11.477785165422	3
0	10989	11.486289165422	2
0	10989	11.486289165422	3
0	10998	11.494793165422	2
0	10998	11.494793165422	3
0	11016	11.503297165422	2
0	11016	11.503297165422	3
0	11025	11.511801165422	2
0	11025	11.511801165422	3
0	11034	11.520305165422	2
0	11034	11.520305165422	3
0	11047	11.528809165422	2
0	11047	11.528809165422	3
0	11056	11.537313165422	2
0	11056	11.537313165422	3
0	11061	11.545817165422	2
0	11061	11.545817165422	3
0	11074	11.554321165422	2
0	11074	11.554321165422	3
0	11079	11.562825165422	2
0	11089	11.567752769304	3
0	11097	11.576256769304	2
0	11097	11.576256769304	3
0	11105	11.584760769304	2
0	11113	11.603677334271	3
0	11120	11.612181334271	2
0	11120	11.612181334271	3
0	11128	11.620685334271	2
0	11136	11.714879777324	3
0	11143	11.723383777324	2
0	11143	11.723383777324	3
0	11159	11.731887777324	2
0	11159	11.731887777324	3
0	11168	11.740391777324	2
0	11168	11.740391777324	3
0	11181	11.748895777324	2
0	11181	11.748895777324	3
0	11186	11.757399777324	2
0	11186	11.757399777324	3
0	11195	11.765903777324	2
0	11202	11.776468459716	3
0	11205	11.784972459716	2
0	11215	11.796101776603	3
0	11219	11.804605776603	2
0	11228	11.811547481873	3
0	11232	11.820051481873	2
0	11241	11.821376736394	3
0	11244	11.829880736394	2
0	11255	11.852035305871	3
0	11262	11.860539305871	2
0	11262	11.860539305871	3
0	11270	11.869043305871	2
0	11277	11.88501284019	3
0	11280	11.89351684019	2
0	11291	11.906560723456	3
0	11298	11.915064723456	2
0	11298	11.915064723456	3
0	11306	11.923568723456	2
0	11312	11.927148011564	3
0	11328	11.935652011564	2
0	11328	11.935652011564	3
0	11340	11.944156011564	2
0	11340	11.944156011564	3
0	11345	11.952660011564	2
0	11345	11.952660011564	3
0	11362	11.961164011564	2
0	11362	11.961164011564	3
0	11371	11.969668011564	2
0	11371	11.969668011564	3
0	11380	11.978172011564	2
0	11380	11.978172011564	3
0	11385	11.986676011564	2
0	11385	11.986676011564	3
0	11394	11.995180011564	2
0	11401	12.002968921421	3
0	11409	12.011472921421	2
0	11409	12.011472921421	3
0	11421	12.019976921421	2
0	11421	12.019976921421	3
0	11426	12.028480921421	2
0	11436	12.030434480195	3
0	11448	12.038938480195	2
0	11448	12.038938480195	3
0	11456	12.047442480195	2
0	11456	12.047442480195	3
0	11469	12.055946480195	2
0	11469	12.055946480195	3
0	11478	12.064450480195	2
0	11478	12.064450480195	3
0	11483	12.072954480195	2
0	11493	12.079045825267	3
0	11497	12.087549825267	2
0	11506	12.087855491063	3
0	11517	12.096359491063	2
0	11517	12.096359491063	3
0	11527	12.104863491063	2
0	11527	12.104863491063	3
0	11532	12.113367491063	2
0	11543	12.128143876901	3
0	11546	12.136647876901	2
0	11555	12.138620345522	3
0	11567	12.147124345522	2
0	11567	12.147124345522	3
0	11583	12.155628345522	2
0	11583	12.155628345522	3
0	11592	12.164132345522	2
0	11592	12.164132345522	3
0	11609	12.172636345522	2
0	11609	12.172636345522	3
0	11618	12.181140345522	2
0	11618	12.181140345522	3
0	11627	12.189644345522	2
0	11627	12.189644345522	3
0	11636	12.198148345522	2
0	11636	12.198148345522	3
0	11650	12.206652345522	2
0	11650	12.206652345522	3
0	11659	12.215156345522	2
0	11659	12.215156345522	3
0	11668	12.223660345522	2
0	11668	12.223660345522	3
0	11677	12.232164345522	2
0	11677	12.232164345522	3
0	11686	12.240668345522	2
0	11686	12.240668345522	3
0	11691	12.249172345522	2
0	11702	12.259568446036	3
0	11705	12.268072446036	2
0	11714	12.277644317983	3
0	11718	12.286148317983	2
0	11729	12.300278103906	3
0	11736	12.308782103906	2
0	11736	12.308782103906	3
0	11748	12.317286103906	2
0	11748	12.317286103906	3
0	11753	12.325790103906	2
0	11764	12.376543888566	3
0	11771	12.385047888566	2
0	11771	12.385047888566	3
0	11787	12.393551888566	2
0	11787	12.393551888566	3
0	11793	12.402055888566	2
0	11793	12.402055888566	3
0	11802	12.410559888566	2
0	11809	12.421260925053	3
0	11812	12.429764925053	2
0	11822	12.461464106321	3
0	11825	12.469968106321	2
0	11834	12.476713539754	3
0	11842	12.485217539754	2
0	11842	12.485217539754	3
0	11862	12.493721539754	2
0	11862	12.493721539754	3
0	11876	12.502225539754	2
0	11876	12.502225539754	3
0	11889	12.510729539754	2
0	11889	12.510729539754	3
0	11898	12.519233539754	2
0	11898	12.519233539754	3
0	11907	12.527737539754	2
0	11907	12.527737539754	3
0	11920	12.536241539754	2
0	11920	12.536241539754	3
0	11933	12.544745539754	2
0	11933	12.544745539754	3
0	11942	12.553249539754	2
0	11942	12.553249539754	3
0	11951	12.561753539754	2
0	11951	12.561753539754	3
0	11956	12.570257539754	2
0	11956	12.570257539754	3
0	11969	12.578761539754	2
0	11969	12.578761539754	3
0	11978	12.587265539754	2
0	11978	12.587265539754	3
0	11987	12.595769539754	2
0	11987	12.595769539754	3
0	11993	12.604273539754	2
0	12004	12.625772679224	3
0	12015	12.634276679224	2
0	12015	12.634276679224	3
0	12031	12.642780679224	2
0	12031	12.642780679224	3
0	12036	12.651284679224	2
0	12036	12.651284679224	3
0	12045	12.659788679224	2
0	12045	12.659788679224	3
0	12058	12.668292679224	2
0	12058	12.668292679224	3
0	12071	12.676796679224	2
0	12071	12.676796679224	3
0	12076	12.685300679224	2
0	12076	12.685300679224	3
0	12089	12.693804679224	2
0	12089	12.693804679224	3
0	12095	12.702308679224	2
0	12104	12.703464023574	3
0	12108	12.711968023574	2
0	12118	12.713262759547	3
0	12121	12.721766759547	2
0	12131	12.727910006009	3
0	12147	12.736414006009	2
0	12147	12.736414006009	3
0	12167	12.744918006009	2
0	12167	12.744918006009	3
0	12172	12.753422006009	2
0	12172	12.753422006009	3
0	12181	12.761926006009	2
0	12181	12.761926006009	3
0	12186	12.770430006009	2
0	12186	12.770430006009	3
0	12195	12.778934006009	2
0	12195	12.778934006009	3
0	12204	12.787438006009	2
0	12204	12.787438006009	3
0	12213	12.795942006009	2
0	12221	12.808797854672	3
0	12232	12.817301854672	2
0	12232	12.817301854672	3
0	12240	12.825805854672	2
0	12240	12.825805854672	3
0	12245	12.834309854672	2
0	12256	12.844883920448	3
0	12267	12.853387920448	2
0	12267	12.853387920448	3
0	12275	12.861891920448	2
0	12275	12.861891920448	3
0	12288	12.870395920448	2
0	12288	12.870395920448	3
0	12301	12.878899920448	2
0	12301	12.878899920448	3
0	12306	12.887403920448	2
0	12306	12.887403920448	3
0	12315	12.895907920448	2
0	12323	12.914763452528	3
0	12326	12.923267452528	2
0	12335	12.927005373264	3
0	12339	12.935509373264	2
0	12348	12.935829960173	3
0	12355	12.944333960173	2
0	12355	12.944333960173	3
0	12364	12.952837960173	2
0	12370	12.959791584487	3
0	12378	12.968295584487	2
0	12378	12.968295584487	3
0	12386	12.976799584487	2
0	12394	13.002673267744	3
0	12397	13.011177267744	2
0	12407	13.026363268028	3
0	12410	13.034867268028	2
0	12419	13.037900513299	3
0	12427	13.046404513299	2
0	12427	13.046404513299	3
0	12439	13.054908513299	2
0	12439	13.054908513299	3
0	12444	13.063412513299	2
0	12455	13.082250158114	3
0	12458	13.090754158114	2
0	12467	13.091172763962	3
0	12478	13.099676763962	2
0	12478	13.099676763962	3
0	12488	13.108180763962	2
0	12488	13.108180763962	3
0	12497	13.116684763962	2
0	12497	13.116684763962	3
0	12506	13.125188763962	2
0	12513	13.140787473859	3
0	12520	13.149291473859	2
0	12520	13.149291473859	3
0	12528	13.157795473859	2
0	12533	13.159129888304	3
0	12541	13.167633888304	2
0	12541	13.167633888304	3
0	12550	13.176137888304	2
0	12558	13.200291339774	3
0	12561	13.208795339774	2
0	12570	13.211747291793	3
0	12574	13.220251291793	2
0	12583	13.221394602606	3
0	12590	13.229898602606	2
0	12590	13.229898602606	3
0	12599	13.238402602606	2
0	12606	13.257395773752	3
0	12613	13.265899773752	2
0	12613	13.265899773752	3
0	12621	13.274403773752	2
0	12627	13.282238548558	3
0	12631	13.290742548558	2
0	12642	13.332722268001	3
0	12645	13.341226268001	2
0	12654	13.351078517217	3
0	12658	13.359582517217	2
0	12667	13.359860921691	3
0	12678	13.368364921691	2
0	12678	13.368364921691	3
0	12691	13.376868921691	2
0	12691	13.376868921691	3
0	12704	13.385372921691	2
0	12704	13.385372921691	3
0	12721	13.393876921691	2
0	12721	13.393876921691	3
0	12731	13.402380921691	2
0	12731	13.402380921691	3
0	12744	13.410884921691	2
0	12744	13.410884921691	3
0	12757	13.419388921691	2
0	12757	13.419388921691	3
0	12766	13.427892921691	2
0	12766	13.427892921691	3
0	12771	13.436396921691	2
0	12771	13.436396921691	3
0	12784	13.444900921691	2
0	12784	13.444900921691	3
0	12789	13.453404921691	2
0	12789	13.453404921691	3
0	12802	13.461908921691	2
0	12802	13.461908921691	3
0	12811	13.470412921691	2
0	12811	13.470412921691	3
0	12820	13.478916921691	2
0	12820	13.478916921691	3
0	12825	13.487420921691	2
0	12835	13.493302162134	3
0	12840	13.501806162134	2
0	12850	13.532669604283	3
0	12857	13.541173604283	2
0	12857	13.541173604283	3
0	12869	13.549677604283	2
0	12869	13.549677604283	3
0	12874	13.558181604283	2
0	12886	13.620572462154	3
0	12889	13.629076462154	2
0	12899	13.673536323404	3
0	12902	13.682040323404	2
0	12911	13.684631918441	3
0	12919	13.693135918441	2
0	12919	13.693135918441	3
0	12940	13.701639918441	2
0	12940	13.701639918441	3
0	12945	13.710143918441	2
0	12945	13.710143918441	3
0	12954	13.718647918441	2
0	12954	13.718647918441	3
0	12959	13.727151918441	2
0	12969	13.736980003678	3
0	12977	13.745484003678	2
0	12977	13.745484003678	3
0	12985	13.753988003678	2
0	12990	13.753999899386	3
0	12998	13.762503899386	2
0	12998	13.762503899386	3
0	13007	13.771007899386	2
0	13014	13.793393387364	3
0	13018	13.801897387364	2
0	13027	13.80904150128	3
0	13035	13.81754550128	2
0	13035	13.81754550128	3
0	13043	13.82604950128	2
0	13049	13.832669835932	3
0	13061	13.841173835932	2
0	13061	13.841173835932	3
0	13073	13.849677835932	2
0	13073	13.849677835932	3
0	13086	13.858181835932	2
0	13086	13.858181835932	3
0	13099	13.866685835932	2
0	13099	13.866685835932	3
0	13108	13.875189835932	2
0	13108	13.875189835932	3
0	13125	13.883693835932	2
0	13125	13.883693835932	3
0	13130	13.892197835932	2
0	13130	13.892197835932	3
0	13148	13.900701835932	2
0	13148	13.900701835932	3
0	13157	13.909205835932	2
0	13157	13.909205835932	3
0	13174	13.917709835932	2
0	13174	13.917709835932	3
0	13179	13.926213835932	2
0	13179	13.926213835932	3
0	13188	13.934717835932	2
0	13188	13.934717835932	3
0	13197	13.943221835932	2
0	13197	13.943221835932	3
0	13206	13.951725835932	2
0	13206	13.951725835932	3
0	13211	13.960229835932	2
0	13211	13.960229835932	3
0	13220	13.968733835932	2
0	13226	13.972388614115	3
0	13234	13.980892614115	2
0	13234	13.980892614115	3
0	13242	13.989396614115	2
0	13248	13.9979959035	3
0	13257	14.0064999035	2
0	13257	14.0064999035	3
0	13269	14.0150039035	2
0	13269	14.0150039035	3
0	13274	14.0235079035	2
0	13284	14.028059606374	3
0	13292	14.036563606374	2
0	13292	14.036563606374	3
0	13304	14.045067606374	2
0	13304	14.045067606374	3
0	13309	14.053571606374	2
0	13319	14.063542407908	3
0	13331	14.072046407908	2
0	13331	14.072046407908	3
0	13343	14.080550407908	2
0	13343	14.080550407908	3
0	13352	14.089054407908	2
0	13352	14.089054407908	3
0	13361	14.097558407908	2
0	13361	14.097558407908	3
0	13371	14.106062407908	2
0	13371	14.106062407908	3
0	13380	14.114566407908	2
0	13387	14.132725928241	3
0	13394	14.141229928241	2
0	13394	14.141229928241	3
0	13406	14.149733928241	2
0	13406	14.149733928241	3
0	13415	14.158237928241	2
0	13415	14.158237928241	3
0	13428	14.166741928241	2
0	13428	14.166741928241	3
0	13433	14.175245928241	2
0	13445	14.211042529821	3
0	13448	14.219546529821	2
0	13457	14.225383885758	3
0	13465	14.233887885758	2
0	13465	14.233887885758	3
0	13477	14.242391885758	2
0	13477	14.242391885758	3
0	13482	14.250895885758	2
0	13493	14.269704757488	3
0	13500	14.278208757488	2
0	13500	14.278208757488	3
0	13508	14.286712757488	2
0	13513	14.286739664877	3
0	13517	14.295243664877	2
0	13529	14.317886242149	3
0	13532	14.326390242149	2
0	13541	14.330997766101	3
0	13549	14.339501766101	2
0	13549	14.339501766101	3
0	13565	14.348005766101	2
0	13565	14.348005766101	3
0	13570	14.356509766101	2
0	13570	14.356509766101	3
0	13583	14.365013766101	2
0	13583	14.365013766101	3
0	13592	14.373517766101	2
0	13592	14.373517766101	3
0	13601	14.382021766101	2
0	13609	14.404633630914	3
0	13612	14.413137630914	2
0	13622	14.428829961941	3
0	13625	14.437333961941	2
0	13635	14.449153631888	3
0	13638	14.457657631888	2
0	13648	14.478244004937	3
0	13655	14.486748004937	2
0	13655	14.486748004937	3
0	13671	14.495252004937	2
0	13671	14.495252004937	3
0	13681	14.503756004937	2
0	13681	14.503756004937	3
0	13690	14.512260004937	2
0	13690	14.512260004937	3
0	13703	14.520764004937	2
0	13703	14.520764004937	3
0	13720	14.529268004937	2
0	13720	14.529268004937	3
0	13729	14.537772004937	2
0	13729	14.537772004937	3
0	13738	14.546276004937	2
0	13738	14.546276004937	3
0	13743	14.554780004937	2
0	13743	14.554780004937	3
0	13752	14.563284004937	2
0	13758	14.565536240248	3
0	13762	14.574040240248	2
0	13772	14.591835748037	3
0	13776	14.600339748037	2
0	13786	14.615455761319	3
0	13789	14.623959761319	2
0	13798	14.62815691902	3
0	13806	14.63666091902	2
0	13806	14.63666091902	3
0	13818	14.64516491902	2
0	13818	14.64516491902	3
0	13823	14.65366891902	2
0	13833	14.663036188375	3
0	13841	14.671540188375	2
0	13841	14.671540188375	3
0	13849	14.680044188375	2
0	13855	14.683659921946	3
0	13863	14.692163921946	2
0	13863	14.692163921946	3
0	13872	14.700667921946	2
0	13878	14.704505866641	3
0	13882	14.713009866641	2
0	13892	14.724281754274	3
0	13899	14.732785754274	2
0	13899	14.732785754274	3
0	13911	14.741289754274	2
0	13911	14.741289754274	3
0	13928	14.749793754274	2
0	13928	14.749793754274	3
0	13937	14.758297754274	2
0	13937	14.758297754274	3
0	13942	14.766801754274	2
0	13942	14.766801754274	3
0	13955	14.775305754274	2
0	13955	14.775305754274	3
0	13964	14.783809754274	2
0	13964	14.783809754274	3
0	13973	14.792313754274	2
0	13981	14.826051481114	3
0	13984	14.834555481114	2
0	13994	14.874426418201	3
0	13997	14.882930418201	2
0	14008	14.933410852154	3
0	14015	14.941914852154	2
0	14015	14.941914852154	3
0	14023	14.950418852154	2
0	14030	14.968343115546	3
0	14037	14.976847115546	2
0	14037	14.976847115546	3
0	14049	14.985351115546	2
0	14049	14.985351115546	3
0	14054	14.993855115546	2
0	14064	14.996059718828	3
0	14073	15.004563718828	2
0	14073	15.004563718828	3
0	14093	15.013067718828	2
0	14093	15.013067718828	3
0	14110	15.021571718828	2
0	14110	15.021571718828	3
0	14123	15.030075718828	2
0	14123	15.030075718828	3
0	14128	15.038579718828	2
0	14128	15.038579718828	3
0	14149	15.047083718828	2
0	14149	15.047083718828	3
0	14166	15.055587718828	2
0	14166	15.055587718828	3
0	14175	15.064091718828	2
0	14175	15.064091718828	3
0	14180	15.072595718828	2
0	14180	15.072595718828	3
0	14189	15.081099718828	2
0	14189	15.081099718828	3
0	14194	15.089603718828	2
0	14194	15.089603718828	3
0	14211	15.098107718828	2
0	14211	15.098107718828	3
0	14217	15.106611718828	2
0	14217	15.106611718828	3
0	14226	15.115115718828	2
0	14226	15.115115718828	3
0	14235	15.123619718828	2
0	14235	15.123619718828	3
0	14248	15.132123718828	2
0	14248	15.132123718828	3
0	14257	15.140627718828	2
0	14257	15.140627718828	3
0	14270	15.149131718828	2
0	14270	15.149131718828	3
0	14275	15.157635718828	2
0	14275	15.157635718828	3
0	14284	15.166139718828	2
0	14284	15.166139718828	3
0	14289	15.174643718828	2
0	14300	15.187336962119	3
0	14307	15.195840962119	2
0	14307	15.195840962119	3
0	14316	15.204344962119	2
0	14322	15.211373974548	3
0	14326	15.219877974548	2
0	14335	15.221098080162	3
0	14342	15.229602080162	2
0	14342	15.229602080162	3
0	14351	15.238106080162	2
0	14358	15.264478986848	3
0	14361	15.272982986848	2
0	14370	15.275424060887	3
0	14382	15.283928060887	2
0	14382	15.283928060887	3
0	14390	15.292432060887	2
0	14390	15.292432060887	3
0	14396	15.300936060887	2
0	14405	15.301685342539	3
0	14409	15.310189342539	2
0	14419	15.3158854682	3
0	14423	15.3243894682	2
0	14433	15.345657447512	3
0	14440	15.354161447512	2
0	14440	15.354161447512	3
0	14448	15.362665447512	2
0	14454	15.366296036474	3
0	14462	15.374800036474	2
0	14462	15.374800036474	3
0	14470	15.383304036474	2
0	14475	15.38391630028	3
0	14479	15.39242030028	2
0	14491	15.42114186717	3
0	14494	15.42964586717	2
0	14504	15.467665394412	3
0	14507	15.476169394412	2
0	14517	15.49139589768	3
0	14524	15.49989989768	2
0	14524	15.49989989768	3
0	14533	15.50840389768	2
0	14540	15.522973491593	3
0	14543	15.531477491593	2
0	14552	15.535187035036	3
0	14564	15.543691035036	2
0	14564	15.543691035036	3
0	14572	15.552195035036	2
0	14572	15.552195035036	3
0	14581	15.560699035036	2
0	14581	15.560699035036	3
0	14594	15.569203035036	2
0	14594	15.569203035036	3
0	14599	15.577707035036	2
0	14609	15.586892290518	3
0	14613	15.595396290518	2
0	14623	15.603433290461	3
0	14627	15.611937290461	2
0	14637	15.622366664431	3
0	14644	15.630870664431	2
0	14644	15.630870664431	3
0	14652	15.639374664431	2
0	14658	15.646019198606	3
0	14662	15.654523198606	2
0	14671	15.655570565834	3
0	14678	15.664074565834	2
0	14678	15.664074565834	3
0	14687	15.672578565834	2
0	14693	15.676756463732	3
0	14709	15.685260463732	2
0	14709	15.685260463732	3
0	14717	15.693764463732	2
0	14717	15.693764463732	3
0	14723	15.702268463732	2
0	14723	15.702268463732	3
0	14732	15.710772463732	2
0	14739	15.731345067869	3
0	14754	15.739849067869	2
0	14754	15.739849067869	3
0	14770	15.748353067869	2
0	14770	15.748353067869	3
0	14775	15.756857067869	2
0	14775	15.756857067869	3
0	14784	15.765361067869	2
0	14784	15.765361067869	3
0	14789	15.773865067869	2
0	14789	15.773865067869	3
0	14798	15.782369067869	2
0	14803	15.783264808076	3
0	14807	15.791768808076	2
0	14819	15.805648705131	3
0	14830	15.814152705131	2
0	14830	15.814152705131	3
0	14838	15.822656705131	2
0	14838	15.822656705131	3
0	14843	15.831160705131	2
0	14853	15.833076215436	3
0	14857	15.841580215436	2
0	14866	15.846040869973	3
0	14874	15.854544869973	2
0	14874	15.854544869973	3
0	14882	15.863048869973	2
0	14890	15.91449779671	3
0	14897	15.92300179671	2
0	14897	15.92300179671	3
0	14905	15.93150579671	2
0	14911	15.939984448207	3
0	14919	15.948488448207	2
0	14919	15.948488448207	3
0	14931	15.956992448207	2
0	14931	15.956992448207	3
0	14936	15.965496448207	2
0	14946	15.970069014515	3
0	14950	15.978573014515	2
0	14959	15.983649151328	3
0	14963	15.992153151328	2
0	14974	16.016990380827	3
0	14977	16.025494380827	2
0	14986	16.028637453625	3
0	14994	16.037141453625	2
0	14994	16.037141453625	3
0	15002	16.045645453625	2
0	15009	16.055759935022	3
0	15012	16.064263935022	2
0	15021	16.073352068143	3
0	15025	16.081856068143	2
0	15034	16.088284209077	3
0	15046	16.096788209077	2
0	15046	16.096788209077	3
0	15059	16.105292209077	2
0	15059	16.105292209077	3
0	15064	16.113796209077	2
0	15064	16.113796209077	3
0	15077	16.122300209077	2
0	15077	16.122300209077	3
0	15082	16.130804209077	2
0	15092	16.132374542561	3
0	15096	16.140878542561	2
0	15106	16.158129479976	3
0	15109	16.166633479976	2
0	15119	16.198910932372	3
0	15123	16.207414932372	2
0	15132	16.216797337903	3
0	15136	16.225301337903	2
0	15146	16.27866475604	3
0	15149	16.28716875604	2
0	15158	16.29011172912	3
0	15174	16.29861572912	2
0	15174	16.29861572912	3
0	15183	16.30711972912	2
0	15183	16.30711972912	3
0	15188	16.31562372912	2
0	15188	16.31562372912	3
0	15201	16.32412772912	2
0	15201	16.32412772912	3
0	15206	16.33263172912	2
0	15216	16.34070485929	3
0	15220	16.34920885929	2
0	15230	16.379577636725	3
0	15241	16.388081636725	2
0	15241	16.388081636725	3
0	15249	16.396585636725	2
0	15249	16.396585636725	3
0	15255	16.405089636725	2
0	15265	16.410274186427	3
0	15273	16.418778186427	2
0	15273	16.418778186427	3
0	15285	16.427282186427	2
0	15285	16.427282186427	3
0	15290	16.435786186427	2
0	15301	16.47294703395	3
0	15308	16.48145103395	2
0	15308	16.48145103395	3
0	15316	16.48995503395	2
0	15322	16.492240667303	3
0	15331	16.500744667303	2
0	15331	16.500744667303	3
0	15339	16.509248667303	2
0	15345	16.515930466867	3
0	15349	16.524434466867	2
0	15358	16.524932531916	3
0	15369	16.533436531916	2
0	15369	16.533436531916	3
0	15382	16.541940531916	2
0	15382	16.541940531916	3
0	15391	16.550444531916	2
0	15391	16.550444531916	3
0	15400	16.558948531916	2
0	15400	16.558948531916	3
0	15409	16.567452531916	2
0	15409	16.567452531916	3
0	15418	16.575956531916	2
0	15425	16.59503935213	3
0	15429	16.60354335213	2
0	15438	16.609252821322	3
0	15442	16.617756821322	2
0	15451	16.627487595274	3
0	15463	16.635991595274	2
0	15463	16.635991595274	3
0	15475	16.644495595274	2
0	15475	16.644495595274	3
0	15480	16.652999595274	2
0	15480	16.652999595274	3
0	15497	16.661503595274	2
0	15497	16.661503595274	3
0	15510	16.670007595274	2
0	15510	16.670007595274	3
0	15519	16.678511595274	2
0	15519	16.678511595274	3
0	15524	16.687015595274	2
0	15524	16.687015595274	3
0	15537	16.695519595274	2
0	15537	16.695519595274	3
0	15555	16.704023595274	2
0	15555	16.704023595274	3
0	15568	16.712527595274	2
0	15568	16.712527595274	3
0	15573	16.721031595274	2
0	15573	16.721031595274	3
0	15586	16.729535595274	2
0	15586	16.729535595274	3
0	15591	16.738039595274	2
0	15591	16.738039595274	3
0	15604	16.746543595274	2
0	15604	16.746543595274	3
0	15613	16.755047595274	2
0	15613	16.755047595274	3
0	15622	16.763551595274	2
0	15628	16.770979525943	3
0	15636	16.779483525943	2
0	15636	16.779483525943	3
0	15648	16.787987525943	2
0	15648	16.787987525943	3
0	15657	16.796491525943	2
0	15657	16.796491525943	3
0	15667	16.804995525943	2
0	15673	16.810131126008	3
0	15677	16.818635126008	2
0	15687	16.847853721011	3
0	15694	16.856357721011	2
0	15694	16.856357721011	3
0	15702	16.864861721011	2
0	15708	16.870679093127	3
0	15712	16.879183093127	2
0	15721	16.883623769676	3
0	15725	16.892127769676	2
0	15734	16.894040574736	3
0	15739	16.902544574736	2
0	15748	16.91193402333	3
0	15752	16.92043802333	2
0	15762	16.946529824366	3
0	15773	16.955033824366	2
0	15773	16.955033824366	3
0	15781	16.963537824366	2
0	15781	16.963537824366	3
0	15794	16.972041824366	2
0	15794	16.972041824366	3
0	15811	16.980545824366	2
0	15811	16.980545824366	3
0	15820	16.989049824366	2
0	15820	16.989049824366	3
0	15837	16.997553824366	2
0	15837	16.997553824366	3
0	15843	17.006057824366	2
0	15843	17.006057824366	3
0	15852	17.014561824366	2
0	15852	17.014561824366	3
0	15861	17.023065824366	2
0	15861	17.023065824366	3
0	15874	17.031569824366	2
0	15874	17.031569824366	3
0	15883	17.040073824366	2
0	15883	17.040073824366	3
0	15896	17.048577824366	2
0	15896	17.048577824366	3
0	15901	17.057081824366	2
0	15901	17.057081824366	3
0	15918	17.065585824366	2
0	15918	17.065585824366	3
0	15935	17.074089824366	2
0	15935	17.074089824366	3
0	15948	17.082593824366	2
0	15948	17.082593824366	3
0	15957	17.091097824366	2
0	15957	17.091097824366	3
0	15966	17.099601824366	2
0	15966	17.099601824366	3
0	15972	17.108105824366	2
0	15972	17.108105824366	3
0	15981	17.116609824366	2
0	15981	17.116609824366	3
0	15990	17.125113824366	2
0	15990	17.125113824366	3
0	15999	17.133617824366	2
0	16006	17.165344743777	3
0	16009	17.173848743777	2
0	16018	17.176959727879	3
0	16022	17.185463727879	2
0	16031	17.188491961638	3
0	16035	17.196995961638	2
0	16046	17.239195164456	3
0	16049	17.247699164456	2
0	16059	17.265389681026	3
0	16062	17.273893681026	2
0	16071	17.282771290777	3
0	16079	17.291275290777	2
0	16079	17.291275290777	3
0	16095	17.299779290777	2
0	16095	17.299779290777	3
0	16105	17.308283290777	2
0	16105	17.308283290777	3
0	16114	17.316787290777	2
0	16114	17.316787290777	3
0	16119	17.325291290777	2
0	16130	17.359168993052	3
0	16133	17.367672993052	2
0	16143	17.388354616351	3
0	16154	17.396858616351	2
0	16154	17.396858616351	3
0	16163	17.405362616351	2
0	16163	17.405362616351	3
0	16168	17.413866616351	2
0	16178	17.417640931295	3
0	16182	17.426144931295	2
0	16191	17.426885680229	3
0	16198	17.435389680229	2
0	16198	17.435389680229	3
0	16211	17.443893680229	2
0	16211	17.443893680229	3
0	16216	17.452397680229	2
0	16226	17.455405209658	3
0	16242	17.463909209658	2
0	16242	17.463909209658	3
0	16262	17.472413209658	2
0	16262	17.472413209658	3
0	16267	17.480917209658	2
0	16267	17.480917209658	3
0	16292	17.489421209658	2
0	16292	17.489421209658	3
0	16305	17.497925209658	2
0	16305	17.497925209658	3
0	16319	17.506429209658	2
0	16319	17.506429209658	3
0	16324	17.514933209658	2
0	16324	17.514933209658	3
0	16337	17.523437209658	2
0	16337	17.523437209658	3
0	16342	17.531941209658	2
0	16342	17.531941209658	3
0	16351	17.540445209658	2
0	16351	17.540445209658	3
0	16356	17.548949209658	2
0	16356	17.548949209658	3
0	16365	17.557453209658	2
0	16365	17.557453209658	3
0	16370	17.565957209658	2
0	16370	17.565957209658	3
0	16379	17.574461209658	2
0	16379	17.574461209658	3
0	16384	17.582965209658	2
0	16394	17.589664708127	3
0	16398	17.598168708127	2
0	16407	17.59882697533	3
0	16411	17.60733097533	2
0	16422	17.633459336445	3
0	16433	17.641963336445	2
0	16433	17.641963336445	3
0	16445	17.650467336445	2
0	16445	17.650467336445	3
0	16454	17.658971336445	2
0	16454	17.658971336445	3
0	16467	17.667475336445	2
0	16467	17.667475336445	3
0	16476	17.675979336445	2
0	16476	17.675979336445	3
0	16489	17.684483336445	2
0	16489	17.684483336445	3
0	16494	17.692987336445	2
0	16494	17.692987336445	3
0	16504	17.701491336445	2
0	16511	17.712646049883	3
0	16514	17.721150049883	2
0	16524	17.738575412408	3
0	16527	17.747079412408	2
0	16536	17.753102451577	3
0	16544	17.761606451577	2
0	16544	17.761606451577	3
0	16560	17.770110451577	2
0	16560	17.770110451577	3
0	16565	17.778614451577	2
0	16565	17.778614451577	3
0	16578	17.787118451577	2
0	16578	17.787118451577	3
0	16591	17.795622451577	2
0	16591	17.795622451577	3
0	16601	17.804126451577	2
0	16601	17.804126451577	3
0	16606	17.812630451577	2
0	16616	17.817524717539	3
0	16620	17.826028717539	2
[...]
20	13453	14.2	320000
20	13537	14.3	400000
20	13617	14.4	320000
20	13688	14.5	320000
20	13781	14.6	400000
20	13887	14.7	480000
20	13989	14.8	400000
20	14022	14.9	160000
20	14080	15	240000
20	14224	15.1	480000
20	14331	15.2	480000
20	14401	15.3	320000
20	14499	15.4	480000
20	14548	15.5	240000
20	14632	15.6	400000
20	14730	15.7	400000
20	14837	15.8	400000
20	14904	15.9	320000
20	14982	16	400000
20	15071	16.1	400000
20	15128	16.2	320000
20	15195	16.3	320000
20	15260	16.4	320000
20	15338	16.5	320000
20	15434	16.6	400000
20	15562	16.7	480000
20	15682	16.8	480000
20	15744	16.9	320000
20	15850	17	400000
20	15979	17.1	480000
20	16054	17.2	400000
20	16112	17.3	240000
20	16173	17.4	320000
20	16331	17.5	560000
20	16416	17.6	480000
20	16519	17.7	400000
20	16611	17.8	400000
20	16700	17.9	480000
20	16777	18	320000
20	16813	18.1	160000
20	16906	18.2	400000
20	17025	18.3	400000
20	17082	18.4	320000
20	17210	18.5	480000
20	17282	18.6	320000
20	17348	18.7	320000
20	17456	18.8	400000
20	17511	18.9	320000
20	17602	19	400000
20	17659	19.1	240000
20	17748	19.2	400000
20	17840	19.3	400000
20	17877	19.4	160000
20	17951	19.5	400000
20	18091	19.6	480000
20	18198	19.7	480000
20	18252	19.8	320000
20	18309	19.9	240000
20	18409	20	400000
20	18480	20.1	320000
20	18551	20.2	320000
20	18655	20.3	400000
20	18727	20.4	320000
20	18803	20.5	320000
20	18927	20.6	480000
20	19015	20.7	320000
20	19104	20.8	400000
20	19231	20.9	560000
20	19338	21	480000
20	19449	21.1	480000
20	19520	21.2	240000
20	19614	21.3	400000
20	19741	21.4	480000
20	19831	21.5	400000
20	19957	21.6	400000
20	20070	21.7	480000
20	20203	21.8	480000
20	20292	21.9	320000
20	20355	22	320000
20	20478	22.1	480000
20	20558	22.2	320000
20	20659	22.3	480000
20	20757	22.4	400000
20	20844	22.5	400000
20	20908	22.6	320000
20	20966	22.7	240000
20	21027	22.8	320000
20	21147	22.9	480000
20	21210	23	240000
20	21332	23.1	480000
20	21419	23.2	320000
20	21514	23.3	400000
20	21647	23.4	480000
20	21754	23.5	480000
20	21828	23.6	400000
20	21939	23.7	560000
20	22027	23.8	400000
20	22160	23.9	480000
20	22254	24	400000
20	22357	24.1	400000
20	22476	24.2	560000
20	22551	24.3	320000
20	22605	24.4	240000
20	22698	24.5	320000
20	22799	24.6	400000
20	22911	24.7	480000
20	23013	24.8	400000
20	23147	24.9	400000
20	23272	25	480000
20	23385	25.1	480000
20	23465	25.2	400000
20	23558	25.3	400000
20	23625	25.4	240000
20	23735	25.5	400000
20	23859	25.6	480000
20	23973	25.7	560000
20	24066	25.8	400000
20	24164	25.9	400000
20	24243	26	400000
20	24350	26.1	400000
20	24468	26.2	480000
20	24540	26.3	320000
20	24651	26.4	400000
20	24763	26.5	480000
20	24837	26.6	240000
20	24934	26.7	400000
20	25012	26.8	320000
20	25077	26.9	320000
20	25188	27	480000
20	25232	27.1	240000
20	25308	27.2	320000
20	25418	27.3	480000
20	25503	27.4	400000
20	25618	27.5	480000
20	25666	27.6	240000
20	25786	27.7	480000
20	25892	27.8	400000
20	25942	27.9	240000
20	26030	28	400000
20	26136	28.1	400000
20	26248	28.2	480000
20	26325	28.3	400000
20	26418	28.4	400000
20	26494	28.5	400000
20	26593	28.6	400000
20	26664	28.7	320000
20	26747	28.8	320000
20	26824	28.9	320000
20	26921	29	400000
20	27027	29.1	480000
20	27133	29.2	400000
20	27222	29.3	320000
20	27292	29.4	240000
20	27389	29.5	480000
20	27519	29.6	480000
20	27621	29.7	400000
20	27702	29.8	320000
20	27842	29.9	480000
20	27945	30	400000
20	28039	30.1	400000
20	28127	30.2	320000
20	28255	30.3	560000
20	28352	30.4	400000
20	28414	30.5	320000
20	28533	30.6	480000
20	28637	30.7	400000
20	28733	30.8	400000
20	28840	30.9	480000
20	28932	31	400000
20	29021	31.1	400000
20	29118	31.2	400000
20	29189	31.3	320000
20	29272	31.4	480000
20	29359	31.5	560000
20	29431	31.6	400000
20	29487	31.7	320000
20	29622	31.8	800000
20	29723	31.9	640000
20	29820	32	640000
20	29967	32.1	800000
20	30099	32.2	880000
20	30174	32.3	480000
20	30288	32.4	640000
20	30345	32.5	400000
20	30424	32.6	480000
20	30550	32.7	720000
20	30651	32.8	640000
20	30761	32.9	640000
20	30823	33	400000
20	30980	33.1	960000
20	31028	33.2	320000
20	31116	33.3	480000
20	31204	33.4	560000
20	31351	33.5	880000
20	31439	33.6	560000
20	31556	33.7	640000
20	31705	33.8	960000
20	31836	33.9	800000
20	31984	34	960000
20	32008	34.1	80000
20	32125	34.2	720000
20	32294	34.3	960000
20	32438	34.4	880000
20	32571	34.5	880000
20	32705	34.6	880000
20	32780	34.7	400000
20	32860	34.8	480000
20	32994	34.9	880000
20	33095	35	560000
20	33149	35.1	320000
20	33219	35.2	480000
20	33315	35.3	560000
20	33416	35.4	640000
20	33490	35.5	400000
20	33621	35.6	800000
20	33762	35.7	880000
20	33810	35.8	320000
20	33902	35.9	560000
20	34019	36	720000
20	34107	36.1	480000
20	34243	36.2	880000
20	34321	36.3	400000
20	34427	36.4	720000
20	34519	36.5	560000
20	34623	36.6	640000
20	34751	36.7	720000
20	34872	36.8	800000
20	35003	36.9	800000
20	35126	37	720000
20	35244	37.1	720000
20	35332	37.2	560000
20	35475	37.3	800000
20	35567	37.4	640000
20	35638	37.5	400000
20	35781	37.6	800000
20	35929	37.7	880000
20	36061	37.8	880000
20	36170	37.9	720000
20	36319	38	880000
20	36432	38.1	720000
20	36512	38.2	480000
20	36612	38.3	560000
20	36669	38.4	400000
20	36761	38.5	560000
20	36885	38.6	720000
20	37032	38.7	880000
20	37120	38.8	560000
20	37221	38.9	640000
20	37343	39	720000
20	37452	39.1	640000
20	37587	39.2	800000
20	37756	39.3	960000
20	37863	39.4	800000
20	37968	39.5	560000
20	38120	39.6	960000
20	38277	39.7	960000
20	38387	39.8	720000
20	38479	39.9	560000
20	38550	40	400000
20	38629	40.1	480000
20	38729	40.2	640000
20	38778	40.3	240000
20	38839	40.4	400000
20	38940	40.5	640000
20	39093	40.6	880000
20	39194	40.7	640000
20	39298	40.8	640000
20	39391	40.9	560000
20	39499	41	640000
20	39582	41.1	560000
20	39687	41.2	640000
20	39740	41.3	320000
20	39838	41.4	560000
20	39933	41.5	560000
20	40056	41.6	800000
20	40075	41.7	80000
20	40171	41.8	560000
20	40293	41.9	800000
20	40398	42	640000
20	40515	42.1	720000
20	40599	42.2	480000
20	40734	42.3	800000
20	40853	42.4	720000
20	40940	42.5	560000
20	41066	42.6	800000
20	41219	42.7	880000
20	41368	42.8	960000
20	41464	42.9	560000
20	41596	43	800000
20	41644	43.1	320000
20	41770	43.2	720000
20	41897	43.3	800000
20	41985	43.4	560000
20	42063	43.5	480000
20	42228	43.6	880000
20	42368	43.7	880000
20	42529	43.8	960000
20	42665	43.9	960000
20	42758	44	560000
20	42880	44.1	720000
20	43040	44.2	880000
20	43143	44.3	720000
20	43229	44.4	560000
20	43360	44.5	720000
20	43513	44.6	960000
20	43678	44.7	960000
20	43771	44.8	640000
20	43885	44.9	720000
20	43981	45	560000
20	44100	45.1	720000
20	44213	45.2	640000
20	44340	45.3	800000
20	44389	45.4	320000
20	44514	45.5	800000
20	44625	45.6	640000
20	44817	45.7	960000
20	44961	45.8	880000
20	45098	45.9	960000
20	45235	46	960000
20	45261	46.1	160000
20	45328	46.2	400000
20	45454	46.3	720000
20	45608	46.4	960000
20	45700	46.5	560000
20	45809	46.6	640000
20	45905	46.7	640000
20	45975	46.8	400000
20	46136	46.9	960000
20	46250	47	720000
20	46351	47.1	640000
20	46507	47.2	880000
20	46643	47.3	880000
20	46779	47.4	800000
20	46888	47.5	720000
20	47010	47.6	720000
20	47183	47.7	960000
20	47348	47.8	960000
20	47505	47.9	960000
20	47633	48	880000
20	47786	48.1	960000
20	47939	48.2	960000
20	48032	48.3	560000
20	48131	48.4	560000
20	48295	48.5	880000
20	48448	48.6	960000
20	48581	48.7	960000
20	48668	48.8	560000
20	48753	48.9	480000
20	48899	49	800000
20	49044	49.1	960000
20	49167	49.2	800000
20	49263	49.3	560000
20	49330	49.4	400000
20	49489	49.5	880000
20	49596	49.6	720000
20	49760	49.7	960000
20	49887	49.8	880000
20	50010	49.9	720000
20	50084	50	480000
20	50203	50.1	720000
20	50300	50.2	560000
20	50396	50.3	560000
20	50556	50.4	960000
20	50692	50.5	880000
20	50798	50.6	640000
20	50928	50.7	800000
20	51072	50.8	880000
20	51160	50.9	560000
20	51256	51	560000
20	51336	51.1	480000
20	51432	51.2	560000
20	51559	51.3	800000
20	51633	51.4	480000
20	51769	51.5	800000
20	51843	51.6	480000
20	51914	51.7	400000
20	52035	51.8	720000
20	52196	51.9	960000
20	52320	52	800000
20	52420	52.1	560000
20	52512	52.2	640000
20	52625	52.3	640000
20	52752	52.4	800000
20	52884	52.5	800000
20	52945	52.6	400000
20	53058	52.7	640000
20	53180	52.8	800000
20	53324	52.9	800000
20	53446	53	720000
20	53590	53.1	880000
20	53747	53.2	960000
20	53928	53.3	960000
20	54069	53.4	960000
20	54209	53.5	880000
20	54337	53.6	880000
20	54417	53.7	480000
20	54547	53.8	800000
20	54660	53.9	720000
20	54765	54	640000
20	54862	54.1	560000
20	54980	54.2	720000
20	55112	54.3	800000
20	55238	54.4	800000
20	55376	54.5	720000
20	55517	54.6	960000
20	55626	54.7	640000
20	55779	54.8	960000
20	55876	54.9	560000
20	56020	55	880000
20	56121	55.1	640000
20	56217	55.2	560000
20	56338	55.3	800000
20	56435	55.4	560000
20	56536	55.5	640000
20	56632	55.6	560000
20	56728	55.7	560000
20	56833	55.8	640000
20	56964	55.9	800000
20	57113	56	960000
20	57236	56.1	720000
20	57396	56.2	960000
20	57536	56.3	880000
20	57668	56.4	800000
20	57786	56.5	720000
20	57878	56.6	560000
20	57960	56.7	480000
20	58096	56.8	800000
20	58235	56.9	880000
20	58383	57	880000
20	58532	57.1	960000
20	58697	57.2	960000
20	58820	57.3	800000
20	58956	57.4	800000
20	59044	57.5	560000
20	59199	57.6	880000
20	59339	57.7	960000
20	59475	57.8	800000
20	59607	57.9	800000
20	59694	58	560000
20	59829	58.1	800000
20	59917	58.2	560000
20	59957	58.3	240000
20	60023	58.4	400000
20	60111	58.5	480000
20	60186	58.6	480000
20	60303	58.7	720000
20	60416	58.8	720000
20	60535	58.9	720000
20	60618	59	480000
20	60757	59.1	880000
20	60855	59.2	560000
20	61011	59.3	960000
20	61150	59.4	880000
20	61243	59.5	560000
20	61365	59.6	640000
20	61478	59.7	720000
20	61626	59.8	880000
20	61779	59.9	960000
20	61926	60	960000
21	61926	0.1	0
21	61926	0.2	0
21	61926	0.3	0
21	61926	0.4	0
21	61926	0.5	0
21	61926	0.6	0
21	61926	0.7	0
21	61926	0.8	0
21	61926	0.9	0
21	61926	1	0
21	61926	1.1	0
21	61926	1.2	0
21	61926	1.3	0
21	61926	1.4	0
21	61926	1.5	0
21	61926	1.6	0
21	61926	1.7	0
21	61926	1.8	0
21	61926	1.9	0
21	61926	2	0
21	61926	2.1	0
21	61926	2.2	0
21	61926	2.3	0
21	61926	2.4	0
21	61926	2.5	0
21	61926	2.6	0
21	61926	2.7	0
21	61926	2.8	0
21	61926	2.9	0
21	61926	3	0
21	61926	3.1	0
21	61926	3.2	0
21	61926	3.3	0
21	61926	3.4	0
21	61926	3.5	0
21	61926	3.6	0
21	61926	3.7	0
21	61926	3.8	0
21	61926	3.9	0
21	61926	4	0
21	61926	4.1	0
21	61926	4.2	0
21	61926	4.3	0
21	61926	4.4	0
21	61926	4.5	0
21	61926	4.6	0
21	61926	4.7	0
21	61926	4.8	0
21	61926	4.9	0
21	61926	5	0
21	61926	5.1	0
21	61926	5.2	0
21	61926	5.3	0
21	61926	5.4	0
21	61926	5.5	0
21	61926	5.6	0
21	61926	5.7	0
21	61926	5.8	0
21	61926	5.9	0
21	61926	6	0
21	61926	6.1	0
21	61926	6.2	0
21	61926	6.3	0
21	61926	6.4	0
21	61926	6.5	0
21	61926	6.6	0
21	61926	6.7	0
21	61926	6.8	0
21	61926	6.9	0
21	61926	7	0
21	61926	7.1	0
21	61926	7.2	0
21	61926	7.3	0
21	61926	7.4	0
21	61926	7.5	0
21	61926	7.6	0
21	61926	7.7	0
21	61926	7.8	0
21	61926	7.9	0
21	61926	8	0
21	61926	8.1	0
21	61926	8.2	0
21	61926	8.3	0
21	61926	8.4	0
21	61926	8.5	0
21	61926	8.6	0
21	61926	8.7	0
21	61926	8.8	0
21	61926	8.9	0
21	61926	9	0
21	61926	9.1	0
21	61926	9.2	0
21	61926	9.3	0
21	61926	9.4	0
21	61926	9.5	0
21	61926	9.6	0
21	61926	9.7	0
21	61926	9.8	0
21	61926	9.9	0
21	61926	10	0
21	61926	10.1	0
21	61926	10.2	0
21	61926	10.3	0
21	61926	10.4	0
21	61926	10.5	0
21	61926	10.6	0
21	61926	10.7	0
21	61926	10.8	0
21	61926	10.9	0
21	61926	11	0
21	61926	11.1	0
21	61926	11.2	0
21	61926	11.3	0
21	61926	11.4	0
21	61926	11.5	0
21	61926	11.6	0
21	61926	11.7	0
21	61926	11.8	0
21	61926	11.9	0
21	61926	12	0
21	61926	12.1	0
21	61926	12.2	0
21	61926	12.3	0
21	61926	12.4	0
21	61926	12.5	0
21	61926	12.6	0
21	61926	12.7	0
21	61926	12.8	0
21	61926	12.9	0
21	61926	13	0
21	61926	13.1	0
21	61926	13.2	0
21	61926	13.3	0
21	61926	13.4	0
21	61926	13.5	0
21	61926	13.6	0
21	61926	13.7	0
21	61926	13.8	0
21	61926	13.9	0
21	61926	14	0
21	61926	14.1	0
21	61926	14.2	0
21	61926	14.3	0
21	61926	14.4	0
21	61926	14.5	0
21	61926	14.6	0
21	61926	14.7	0
21	61926	14.8	0
21	61926	14.9	0
21	61926	15	0
21	61926	15.1	0
21	61926	15.2	0
21	61926	15.3	0
21	61926	15.4	0
21	61926	15.5	0
21	61926	15.6	0
21	61926	15.7	0
21	61926	15.8	0
21	61926	15.9	0
21	61926	16	0
21	61926	16.1	0
21	61926	16.2	0
21	61926	16.3	0
21	61926	16.4	0
21	61926	16.5	0
21	61926	16.6	0
21	61926	16.7	0
21	61926	16.8	0
21	61926	16.9	0
21	61926	17	0
21	61926	17.1	0
21	61926	17.2	0
21	61926	17.3	0
21	61926	17.4	0
21	61926	17.5	0
21	61926	17.6	0
21	61926	17.7	0
21	61926	17.8	0
21	61926	17.9	0
21	61926	18	0
21	61926	18.1	0
21	61926	18.2	0
21	61926	18.3	0
21	61926	18.4	0
21	61926	18.5	0
21	61926	18.6	0
21	61926	18.7	0
21	61926	18.8	0
21	61926	18.9	0
21	61926	19	0
21	61926	19.1	0
21	61926	19.2	0
21	61926	19.3	0
21	61926	19.4	0
21	61926	19.5	0
21	61926	19.6	0
21	61926	19.7	0
21	61926	19.8	0
21	61926	19.9	0
21	61926	20	0
21	61926	20.1	0
21	61926	20.2	0
21	61926	20.3	0
21	61926	20.4	0
21	61926	20.5	0
21	61926	20.6	0
21	61926	20.7	0
21	61926	20.8	0
21	61926	20.9	0
21	61926	21	0
21	61926	21.1	0
21	61926	21.2	0
21	61926	21.3	0
21	61926	21.4	0
21	61926	21.5	0
21	61926	21.6	0
21	61926	21.7	0
21	61926	21.8	0
21	61926	21.9	0
21	61926	22	0
21	61926	22.1	0
21	61926	22.2	0
21	61926	22.3	0
21	61926	22.4	0
21	61926	22.5	0
21	61926	22.6	0
21	61926	22.7	0
21	61926	22.8	0
21	61926	22.9	0
21	61926	23	0
21	61926	23.1	0
21	61926	23.2	0
21	61926	23.3	0
21	61926	23.4	0
21	61926	23.5	0
21	61926	23.6	0
21	61926	23.7	0
21	61926	23.8	0
21	61926	23.9	0
21	61926	24	0
21	61926	24.1	0
21	61926	24.2	0
21	61926	24.3	0
21	61926	24.4	0
21	61926	24.5	0
21	61926	24.6	0
21	61926	24.7	0
21	61926	24.8	0
21	61926	24.9	0
21	61926	25	0
21	61926	25.1	0
21	61926	25.2	0
21	61926	25.3	0
21	61926	25.4	0
21	61926	25.5	0
21	61926	25.6	0
21	61926	25.7	0
21	61926	25.8	0
21	61926	25.9	0
21	61926	26	0
21	61926	26.1	0
21	61926	26.2	0
21	61926	26.3	0
21	61926	26.4	0
21	61926	26.5	0
21	61926	26.6	0
21	61926	26.7	0
21	61926	26.8	0
21	61926	26.9	0
21	61926	27	0
21	61926	27.1	0
21	61926	27.2	0
21	61926	27.3	0
21	61926	27.4	0
21	61926	27.5	0
21	61926	27.6	0
21	61926	27.7	0
21	61926	27.8	0
21	61926	27.9	0
21	61926	28	0
21	61926	28.1	0
21	61926	28.2	0
21	61926	28.3	0
21	61926	28.4	0
21	61926	28.5	0
21	61926	28.6	0
21	61926	28.7	0
21	61926	28.8	0
21	61926	28.9	0
21	61926	29	0
21	61926	29.1	0
21	61926	29.2	0
21	61926	29.3	0
21	61926	29.4	0
21	61926	29.5	0
21	61926	29.6	0
21	61926	29.7	0
21	61926	29.8	0
21	61926	29.9	0
21	61926	30	0
21	61926	30.1	0
21	61926	30.2	0
21	61926	30.3	0
21	61926	30.4	0
21	61926	30.5	0
21	61926	30.6	0
21	61926	30.7	0
21	61926	30.8	0
21	61926	30.9	0
21	61926	31	0
21	61926	31.1	0
21	61926	31.2	0
21	61926	31.3	0
21	61926	31.4	0
21	61926	31.5	0
21	61926	31.6	0
21	61926	31.7	0
21	61926	31.8	0
21	61926	31.9	0
21	61926	32	0
21	61926	32.1	0
21	61926	32.2	0
21	61926	32.3	0
21	61926	32.4	0
21	61926	32.5	0
21	61926	32.6	0
21	61926	32.7	0
21	61926	32.8	0
21	61926	32.9	0
21	61926	33	0
21	61926	33.1	0
21	61926	33.2	0
21	61926	33.3	0
21	61926	33.4	0
21	61926	33.5	0
21	61926	33.6	0
21	61926	33.7	0
21	61926	33.8	0
21	61926	33.9	0
21	61926	34	0
21	61926	34.1	0
21	61926	34.2	0
21	61926	34.3	0
21	61926	34.4	0
21	61926	34.5	0
21	61926	34.6	0
21	61926	34.7	0
21	61926	34.8	0
21	61926	34.9	0
21	61926	35	0
21	61926	35.1	0
21	61926	35.2	0
21	61926	35.3	0
21	61926	35.4	0
21	61926	35.5	0
21	61926	35.6	0
21	61926	35.7	0
21	61926	35.8	0
21	61926	35.9	0
21	61926	36	0
21	61926	36.1	0
21	61926	36.2	0
21	61926	36.3	0
21	61926	36.4	0
21	61926	36.5	0
21	61926	36.6	0
21	61926	36.7	0
21	61926	36.8	0
21	61926	36.9	0
21	61926	37	0
21	61926	37.1	0
21	61926	37.2	0
21	61926	37.3	0
21	61926	37.4	0
21	61926	37.5	0
21	61926	37.6	0
21	61926	37.7	0
21	61926	37.8	0
21	61926	37.9	0
21	61926	38	0
21	61926	38.1	0
21	61926	38.2	0
21	61926	38.3	0
21	61926	38.4	0
21	61926	38.5	0
21	61926	38.6	0
21	61926	38.7	0
21	61926	38.8	0
21	61926	38.9	0
21	61926	39	0
21	61926	39.1	0
21	61926	39.2	0
21	61926	39.3	0
21	61926	39.4	0
21	61926	39.5	0
21	61926	39.6	0
21	61926	39.7	0
21	61926	39.8	0
21	61926	39.9	0
21	61926	40	0
21	61926	40.1	0
21	61926	40.2	0
21	61926	40.3	0
21	61926	40.4	0
21	61926	40.5	0
21	61926	40.6	0
21	61926	40.7	0
21	61926	40.8	0
21	61926	40.9	0
21	61926	41	0
21	61926	41.1	0
21	61926	41.2	0
21	61926	41.3	0
21	61926	41.4	0
21	61926	41.5	0
21	61926	41.6	0
21	61926	41.7	0
21	61926	41.8	0
21	61926	41.9	0
21	61926	42	0
21	61926	42.1	0
21	61926	42.2	0
21	61926	42.3	0
21	61926	42.4	0
21	61926	42.5	0
21	61926	42.6	0
21	61926	42.7	0
21	61926	42.8	0
21	61926	42.9	0
21	61926	43	0
21	61926	43.1	0
21	61926	43.2	0
21	61926	43.3	0
21	61926	43.4	0
21	61926	43.5	0
21	61926	43.6	0
21	61926	43.7	0
21	61926	43.8	0
21	61926	43.9	0
21	61926	44	0
21	61926	44.1	0
21	61926	44.2	0
21	61926	44.3	0
21	61926	44.4	0
21	61926	44.5	0
21	61926	44.6	0
21	61926	44.7	0
21	61926	44.8	0
21	61926	44.9	0
21	61926	45	0
21	61926	45.1	0
21	61926	45.2	0
21	61926	45.3	0
21	61926	45.4	0
21	61926	45.5	0
21	61926	45.6	0
21	61926	45.7	0
21	61926	45.8	0
21	61926	45.9	0
21	61926	46	0
21	61926	46.1	0
21	61926	46.2	0
21	61926	46.3	0
21	61926	46.4	0
21	61926	46.5	0
21	61926	46.6	0
21	61926	46.7	0
21	61926	46.8	0
21	61926	46.9	0
21	61926	47	0
21	61926	47.1	0
21	61926	47.2	0
21	61926	47.3	0
21	61926	47.4	0
21	61926	47.5	0
21	61926	47.6	0
21	61926	47.7	0
21	61926	47.8	0
21	61926	47.9	0
21	61926	48	0
21	61926	48.1	0
21	61926	48.2	0
21	61926	48.3	0
21	61926	48.4	0
21	61926	48.5	0
21	61926	48.6	0
21	61926	48.7	0
21	61926	48.8	0
21	61926	48.9	0
21	61926	49	0
21	61926	49.1	0
21	61926	49.2	0
21	61926	49.3	0
21	61926	49.4	0
21	61926	49.5	0
21	61926	49.6	0
21	61926	49.7	0
21	61926	49.8	0
21	61926	49.9	0
21	61926	50	0
21	61926	50.1	0
21	61926	50.2	0
21	61926	50.3	0
21	61926	50.4	0
21	61926	50.5	0
21	61926	50.6	0
21	61926	50.7	0
21	61926	50.8	0
21	61926	50.9	0
21	61926	51	0
21	61926	51.1	0
21	61926	51.2	0
21	61926	51.3	0
21	61926	51.4	0
21	61926	51.5	0
21	61926	51.6	0
21	61926	51.7	0
21	61926	51.8	0
21	61926	51.9	0
21	61926	52	0
21	61926	52.1	0
21	61926	52.2	0
21	61926	52.3	0
21	61926	52.4	0
21	61926	52.5	0
21	61926	52.6	0
21	61926	52.7	0
21	61926	52.8	0
21	61926	52.9	0
21	61926	53	0
21	61926	53.1	0
21	61926	53.2	0
21	61926	53.3	0
21	61926	53.4	0
21	61926	53.5	0
21	61926	53.6	0
21	61926	53.7	0
21	61926	53.8	0
21	61926	53.9	0
21	61926	54	0
21	61926	54.1	0
21	61926	54.2	0
21	61926	54.3	0
21	61926	54.4	0
21	61926	54.5	0
21	61926	54.6	0
21	61926	54.7	0
21	61926	54.8	0
21	61926	54.9	0
21	61926	55	0
21	61926	55.1	0
21	61926	55.2	0
21	61926	55.3	0
21	61926	55.4	0
21	61926	55.5	0
21	61926	55.6	0
21	61926	55.7	0
21	61926	55.8	0
21	61926	55.9	0
21	61926	56	0
21	61926	56.1	0
21	61926	56.2	0
21	61926	56.3	0
21	61926	56.4	0
21	61926	56.5	0
21	61926	56.6	0
21	61926	56.7	0
21	61926	56.8	0
21	61926	56.9	0
21	61926	57	0
21	61926	57.1	0
21	61926	57.2	0
21	61926	57.3	0
21	61926	57.4	0
21	61926	57.5	0
21	61926	57.6	0
21	61926	57.7	0
21	61926	57.8	0
21	61926	57.9	0
21	61926	58	0
21	61926	58.1	0
21	61926	58.2	0
21	61926	58.3	0
21	61926	58.4	0
21	61926	58.5	0
21	61926	58.6	0
21	61926	58.7	0
21	61926	58.8	0
21	61926	58.9	0
21	61926	59	0
21	61926	59.1	0
21	61926	59.2	0
21	61926	59.3	0
21	61926	59.4	0
21	61926	59.5	0
21	61926	59.6	0
21	61926	59.7	0
21	61926	59.8	0
21	61926	59.9	0
21	61926	60	0

