version 2
run plain-0-20231119-20:05:49-6176
attr configname plain
attr datetime 20231119-20:05:49
attr experiment plain
attr inifile omnetpp.ini
attr iterationvars ""
attr iterationvarsf ""
attr measurement ""
attr network Scenario
attr processid 6176
attr repetition 0
attr replication #0
attr resultdir results
attr runnumber 0
attr seedset 0
param *.visualizer.osgVisualizer.typename "\"\""
param *.node[*].numApps 1
param *.node[*].app[0].typename "\"vanet.veins_inet.VeinsInetSampleApplication\""
param *.node[*].app[0].interface "\"wlan0\""
param *.node[*].wlan[0].opMode "\"p\""
param *.node[*].wlan[0].radio.typename "\"Ieee80211DimensionalRadio\""
param *.node[*].wlan[0].radio.bandName "\"5.9 GHz\""
param *.node[*].wlan[0].radio.channelNumber 3
param *.node[*].wlan[0].radio.transmitter.power 20mW
param *.node[*].wlan[0].radio.bandwidth "10 MHz"
param *.node[*].wlan[*].radio.antenna.mobility.typename "\"AttachedMobility\""
param *.node[*].wlan[*].radio.antenna.mobility.mobilityModule "\"^.^.^.^.mobility\""
param *.node[*].wlan[*].radio.antenna.mobility.offsetX -2.5m
param *.node[*].wlan[*].radio.antenna.mobility.offsetZ 1.5m
param *.node[*].wlan[*].radio.antenna.mobility.constraintAreaMinX 0m
param *.node[*].wlan[*].radio.antenna.mobility.constraintAreaMaxX 0m
param *.node[*].wlan[*].radio.antenna.mobility.constraintAreaMinY 0m
param *.node[*].wlan[*].radio.antenna.mobility.constraintAreaMaxY 0m
param *.node[*].wlan[*].radio.antenna.mobility.constraintAreaMinZ 0m
param *.node[*].wlan[*].radio.antenna.mobility.constraintAreaMaxZ 0m
param *.node[*].ipv4.configurator.typename "\"HostAutoConfigurator\""
param *.node[*].ipv4.configurator.interfaces "\"wlan0\""
param *.node[*].ipv4.configurator.mcastGroups "\"224.0.0.1\""
param *.node[*].mobility.typename "\"VeinsInetMobility\""
param *.manager.updateInterval 0.1s
param *.manager.host "\"localhost\""
param *.manager.port 9999
param *.manager.autoShutdown true
param *.manager.launchConfig "xmldoc(\"centreurbain.launchd.xml\")"
param *.manager.moduleType "\"vanet.veins_inet.VeinsInetCar\""
param *.physicalEnvironment.config "xmldoc(\"obstacles.xml\")"
param *.radioMedium.obstacleLoss.typename "\"IdealObstacleLoss\""

vector 0 Scenario.node[0].wlan[0].radio radioMode:vector ETV
attr interpolationmode sample-hold
attr source radioModeChanged
attr title "Radio mode, vector"
vector 1 Scenario.node[0].wlan[0].radio radioChannel:vector ETV
attr interpolationmode sample-hold
attr source radioChannelChanged
attr title "Radio channel, vector"
vector 2 Scenario.node[0].wlan[0].radio receptionState:vector ETV
attr interpolationmode sample-hold
attr source receptionStateChanged
attr title "Radio reception state, vector"
vector 3 Scenario.node[0].wlan[0].mac.dcf.recoveryProcedure contentionWindowChanged:vector ETV
attr interpolationmode sample-hold
attr title "contention window, vector"
vector 4 Scenario.node[1].wlan[0].radio radioMode:vector ETV
attr interpolationmode sample-hold
attr source radioModeChanged
attr title "Radio mode, vector"
vector 5 Scenario.node[1].wlan[0].radio radioChannel:vector ETV
attr interpolationmode sample-hold
attr source radioChannelChanged
attr title "Radio channel, vector"
vector 6 Scenario.node[1].wlan[0].radio receptionState:vector ETV
attr interpolationmode sample-hold
attr source receptionStateChanged
attr title "Radio reception state, vector"
vector 7 Scenario.node[1].wlan[0].mac.dcf.recoveryProcedure contentionWindowChanged:vector ETV
attr interpolationmode sample-hold
attr title "contention window, vector"
vector 8 Scenario.node[2].wlan[0].radio radioMode:vector ETV
attr interpolationmode sample-hold
attr source radioModeChanged
attr title "Radio mode, vector"
vector 9 Scenario.node[2].wlan[0].radio radioChannel:vector ETV
attr interpolationmode sample-hold
attr source radioChannelChanged
attr title "Radio channel, vector"
vector 10 Scenario.node[2].wlan[0].radio receptionState:vector ETV
attr interpolationmode sample-hold
attr source receptionStateChanged
attr title "Radio reception state, vector"
vector 11 Scenario.node[2].wlan[0].mac.dcf.recoveryProcedure contentionWindowChanged:vector ETV
attr interpolationmode sample-hold
attr title "contention window, vector"
vector 12 Scenario.node[3].wlan[0].radio radioMode:vector ETV
attr interpolationmode sample-hold
attr source radioModeChanged
attr title "Radio mode, vector"
vector 13 Scenario.node[3].wlan[0].radio radioChannel:vector ETV
attr interpolationmode sample-hold
attr source radioChannelChanged
attr title "Radio channel, vector"
vector 14 Scenario.node[3].wlan[0].radio receptionState:vector ETV
attr interpolationmode sample-hold
attr source receptionStateChanged
attr title "Radio reception state, vector"
vector 15 Scenario.node[3].wlan[0].mac.dcf.recoveryProcedure contentionWindowChanged:vector ETV
attr interpolationmode sample-hold
attr title "contention window, vector"
vector 16 Scenario.node[4].wlan[0].radio radioMode:vector ETV
attr interpolationmode sample-hold
attr source radioModeChanged
attr title "Radio mode, vector"
vector 17 Scenario.node[4].wlan[0].radio radioChannel:vector ETV
attr interpolationmode sample-hold
attr source radioChannelChanged
attr title "Radio channel, vector"
vector 18 Scenario.node[4].wlan[0].radio receptionState:vector ETV
attr interpolationmode sample-hold
attr source receptionStateChanged
attr title "Radio reception state, vector"
vector 19 Scenario.node[4].wlan[0].mac.dcf.recoveryProcedure contentionWindowChanged:vector ETV
attr interpolationmode sample-hold
attr title "contention window, vector"
vector 20 Scenario.node[5].wlan[0].radio radioMode:vector ETV
attr interpolationmode sample-hold
attr source radioModeChanged
attr title "Radio mode, vector"
vector 21 Scenario.node[5].wlan[0].radio radioChannel:vector ETV
attr interpolationmode sample-hold
attr source radioChannelChanged
attr title "Radio channel, vector"
vector 22 Scenario.node[5].wlan[0].radio receptionState:vector ETV
attr interpolationmode sample-hold
attr source receptionStateChanged
attr title "Radio reception state, vector"
vector 23 Scenario.node[5].wlan[0].mac.dcf.recoveryProcedure contentionWindowChanged:vector ETV
attr interpolationmode sample-hold
attr title "contention window, vector"
vector 24 Scenario.node[6].wlan[0].radio radioMode:vector ETV
attr interpolationmode sample-hold
attr source radioModeChanged
attr title "Radio mode, vector"
vector 25 Scenario.node[6].wlan[0].radio radioChannel:vector ETV
attr interpolationmode sample-hold
attr source radioChannelChanged
attr title "Radio channel, vector"
vector 26 Scenario.node[6].wlan[0].radio receptionState:vector ETV
attr interpolationmode sample-hold
attr source receptionStateChanged
attr title "Radio reception state, vector"
vector 27 Scenario.node[6].wlan[0].mac.dcf.recoveryProcedure contentionWindowChanged:vector ETV
attr interpolationmode sample-hold
attr title "contention window, vector"
vector 28 Scenario.node[7].wlan[0].radio radioMode:vector ETV
attr interpolationmode sample-hold
attr source radioModeChanged
attr title "Radio mode, vector"
vector 29 Scenario.node[7].wlan[0].radio radioChannel:vector ETV
attr interpolationmode sample-hold
attr source radioChannelChanged
attr title "Radio channel, vector"
vector 30 Scenario.node[7].wlan[0].radio receptionState:vector ETV
attr interpolationmode sample-hold
attr source receptionStateChanged
attr title "Radio reception state, vector"
vector 31 Scenario.node[7].wlan[0].mac.dcf.recoveryProcedure contentionWindowChanged:vector ETV
attr interpolationmode sample-hold
attr title "contention window, vector"
vector 32 Scenario.node[8].wlan[0].radio radioMode:vector ETV
attr interpolationmode sample-hold
attr source radioModeChanged
attr title "Radio mode, vector"
vector 33 Scenario.node[8].wlan[0].radio radioChannel:vector ETV
attr interpolationmode sample-hold
attr source radioChannelChanged
attr title "Radio channel, vector"
vector 34 Scenario.node[8].wlan[0].radio receptionState:vector ETV
attr interpolationmode sample-hold
attr source receptionStateChanged
attr title "Radio reception state, vector"
vector 35 Scenario.node[8].wlan[0].mac.dcf.recoveryProcedure contentionWindowChanged:vector ETV
attr interpolationmode sample-hold
attr title "contention window, vector"
vector 36 Scenario.node[9].wlan[0].radio radioMode:vector ETV
attr interpolationmode sample-hold
attr source radioModeChanged
attr title "Radio mode, vector"
vector 37 Scenario.node[9].wlan[0].radio radioChannel:vector ETV
attr interpolationmode sample-hold
attr source radioChannelChanged
attr title "Radio channel, vector"
vector 38 Scenario.node[9].wlan[0].radio receptionState:vector ETV
attr interpolationmode sample-hold
attr source receptionStateChanged
attr title "Radio reception state, vector"
vector 39 Scenario.node[9].wlan[0].mac.dcf.recoveryProcedure contentionWindowChanged:vector ETV
attr interpolationmode sample-hold
attr title "contention window, vector"
vector 40 Scenario.node[10].wlan[0].radio radioMode:vector ETV
attr interpolationmode sample-hold
attr source radioModeChanged
attr title "Radio mode, vector"
vector 41 Scenario.node[10].wlan[0].radio radioChannel:vector ETV
attr interpolationmode sample-hold
attr source radioChannelChanged
attr title "Radio channel, vector"
vector 42 Scenario.node[10].wlan[0].radio receptionState:vector ETV
attr interpolationmode sample-hold
attr source receptionStateChanged
attr title "Radio reception state, vector"
vector 43 Scenario.node[10].wlan[0].mac.dcf.recoveryProcedure contentionWindowChanged:vector ETV
attr interpolationmode sample-hold
attr title "contention window, vector"
vector 44 Scenario.node[11].wlan[0].radio radioMode:vector ETV
attr interpolationmode sample-hold
attr source radioModeChanged
attr title "Radio mode, vector"
vector 45 Scenario.node[11].wlan[0].radio radioChannel:vector ETV
attr interpolationmode sample-hold
attr source radioChannelChanged
attr title "Radio channel, vector"
vector 46 Scenario.node[11].wlan[0].radio receptionState:vector ETV
attr interpolationmode sample-hold
attr source receptionStateChanged
attr title "Radio reception state, vector"
vector 47 Scenario.node[11].wlan[0].mac.dcf.recoveryProcedure contentionWindowChanged:vector ETV
attr interpolationmode sample-hold
attr title "contention window, vector"
vector 48 Scenario.node[12].wlan[0].radio radioMode:vector ETV
attr interpolationmode sample-hold
attr source radioModeChanged
attr title "Radio mode, vector"
vector 49 Scenario.node[12].wlan[0].radio radioChannel:vector ETV
attr interpolationmode sample-hold
attr source radioChannelChanged
attr title "Radio channel, vector"
vector 50 Scenario.node[12].wlan[0].radio receptionState:vector ETV
attr interpolationmode sample-hold
attr source receptionStateChanged
attr title "Radio reception state, vector"
vector 51 Scenario.node[12].wlan[0].mac.dcf.recoveryProcedure contentionWindowChanged:vector ETV
attr interpolationmode sample-hold
attr title "contention window, vector"
vector 52 Scenario.node[13].wlan[0].radio radioMode:vector ETV
attr interpolationmode sample-hold
attr source radioModeChanged
attr title "Radio mode, vector"
vector 53 Scenario.node[13].wlan[0].radio radioChannel:vector ETV
attr interpolationmode sample-hold
attr source radioChannelChanged
attr title "Radio channel, vector"
vector 54 Scenario.node[13].wlan[0].radio receptionState:vector ETV
attr interpolationmode sample-hold
attr source receptionStateChanged
attr title "Radio reception state, vector"
vector 55 Scenario.node[13].wlan[0].mac.dcf.recoveryProcedure contentionWindowChanged:vector ETV
attr interpolationmode sample-hold
attr title "contention window, vector"
vector 56 Scenario.node[14].wlan[0].radio radioMode:vector ETV
attr interpolationmode sample-hold
attr source radioModeChanged
attr title "Radio mode, vector"
vector 57 Scenario.node[14].wlan[0].radio radioChannel:vector ETV
attr interpolationmode sample-hold
attr source radioChannelChanged
attr title "Radio channel, vector"
vector 58 Scenario.node[14].wlan[0].radio receptionState:vector ETV
attr interpolationmode sample-hold
attr source receptionStateChanged
attr title "Radio reception state, vector"
vector 59 Scenario.node[14].wlan[0].mac.dcf.recoveryProcedure contentionWindowChanged:vector ETV
attr interpolationmode sample-hold
attr title "contention window, vector"
vector 60 Scenario.node[15].wlan[0].radio radioMode:vector ETV
attr interpolationmode sample-hold
attr source radioModeChanged
attr title "Radio mode, vector"
vector 61 Scenario.node[15].wlan[0].radio radioChannel:vector ETV
attr interpolationmode sample-hold
attr source radioChannelChanged
attr title "Radio channel, vector"
vector 62 Scenario.node[15].wlan[0].radio receptionState:vector ETV
attr interpolationmode sample-hold
attr source receptionStateChanged
attr title "Radio reception state, vector"
vector 63 Scenario.node[15].wlan[0].mac.dcf.recoveryProcedure contentionWindowChanged:vector ETV
attr interpolationmode sample-hold
attr title "contention window, vector"
vector 64 Scenario.node[16].wlan[0].radio radioMode:vector ETV
attr interpolationmode sample-hold
attr source radioModeChanged
attr title "Radio mode, vector"
vector 65 Scenario.node[16].wlan[0].radio radioChannel:vector ETV
attr interpolationmode sample-hold
attr source radioChannelChanged
attr title "Radio channel, vector"
vector 66 Scenario.node[16].wlan[0].radio receptionState:vector ETV
attr interpolationmode sample-hold
attr source receptionStateChanged
attr title "Radio reception state, vector"
vector 67 Scenario.node[16].wlan[0].mac.dcf.recoveryProcedure contentionWindowChanged:vector ETV
attr interpolationmode sample-hold
attr title "contention window, vector"
vector 68 Scenario.node[17].wlan[0].radio radioMode:vector ETV
attr interpolationmode sample-hold
attr source radioModeChanged
attr title "Radio mode, vector"
vector 69 Scenario.node[17].wlan[0].radio radioChannel:vector ETV
attr interpolationmode sample-hold
attr source radioChannelChanged
attr title "Radio channel, vector"
vector 70 Scenario.node[17].wlan[0].radio receptionState:vector ETV
attr interpolationmode sample-hold
attr source receptionStateChanged
attr title "Radio reception state, vector"
vector 71 Scenario.node[17].wlan[0].mac.dcf.recoveryProcedure contentionWindowChanged:vector ETV
attr interpolationmode sample-hold
attr title "contention window, vector"
vector 72 Scenario.node[18].wlan[0].radio radioMode:vector ETV
attr interpolationmode sample-hold
attr source radioModeChanged
attr title "Radio mode, vector"
vector 73 Scenario.node[18].wlan[0].radio radioChannel:vector ETV
attr interpolationmode sample-hold
attr source radioChannelChanged
attr title "Radio channel, vector"
vector 74 Scenario.node[18].wlan[0].radio receptionState:vector ETV
attr interpolationmode sample-hold
attr source receptionStateChanged
attr title "Radio reception state, vector"
vector 75 Scenario.node[18].wlan[0].mac.dcf.recoveryProcedure contentionWindowChanged:vector ETV
attr interpolationmode sample-hold
attr title "contention window, vector"
vector 76 Scenario.node[0].app[0] packetSent:vector(packetBytes) ETV
attr interpolationmode none
attr source packetSent
attr title "packets sent, vector(packetBytes)"
vector 77 Scenario.node[0].udp packetSent:vector(packetBytes) ETV
attr interpolationmode none
attr source packetSent
attr title "packets sent, vector(packetBytes)"
vector 78 Scenario.node[0].lo[0].lo rcvdPkFromHl:vector(packetBytes) ETV
attr interpolationmode none
attr source packetReceivedFromUpper
attr title "packets received from higher layer, vector(packetBytes)"
vector 79 Scenario.node[0].lo[0].lo passedUpPk:vector(packetBytes) ETV
attr interpolationmode none
attr source packetSentToUpper
attr title "packets passed to higher layer, vector(packetBytes)"
0	12	1.1	0
0	12	1.1	0
0	12	1.1	2
1	12	1.1	3
2	12	1.1	1
3	12	1.1	15
4	25	2.1	0
4	25	2.1	0
4	25	2.1	2
5	25	2.1	3
6	25	2.1	1
7	25	2.1	15
8	38	3.1	0
8	38	3.1	0
8	38	3.1	2
9	38	3.1	3
10	38	3.1	1
11	38	3.1	15
12	51	4.1	0
12	51	4.1	0
12	51	4.1	2
13	51	4.1	3
14	51	4.1	1
15	51	4.1	15
16	64	5.1	0
16	64	5.1	0
16	64	5.1	2
17	64	5.1	3
18	64	5.1	1
19	64	5.1	15
20	77	6.1	0
20	77	6.1	0
20	77	6.1	2
21	77	6.1	3
22	77	6.1	1
23	77	6.1	15
24	90	7.1	0
24	90	7.1	0
24	90	7.1	2
25	90	7.1	3
26	90	7.1	1
27	90	7.1	15
28	103	8.1	0
28	103	8.1	0
28	103	8.1	2
29	103	8.1	3
30	103	8.1	1
31	103	8.1	15
32	116	9.1	0
32	116	9.1	0
32	116	9.1	2
33	116	9.1	3
34	116	9.1	1
35	116	9.1	15
36	129	10.1	0
36	129	10.1	0
36	129	10.1	2
37	129	10.1	3
38	129	10.1	1
39	129	10.1	15
40	142	11.1	0
40	142	11.1	0
40	142	11.1	2
41	142	11.1	3
42	142	11.1	1
43	142	11.1	15
44	155	12.1	0
44	155	12.1	0
44	155	12.1	2
45	155	12.1	3
46	155	12.1	1
47	155	12.1	15
48	178	14.1	0
48	178	14.1	0
48	178	14.1	2
49	178	14.1	3
50	178	14.1	1
51	178	14.1	15
52	185	14.5	0
52	185	14.5	0
52	185	14.5	2
53	185	14.5	3
54	185	14.5	1
55	185	14.5	15
56	194	15.1	0
56	194	15.1	0
56	194	15.1	2
57	194	15.1	3
58	194	15.1	1
59	194	15.1	15
60	207	16.1	0
60	207	16.1	0
60	207	16.1	2
61	207	16.1	3
62	207	16.1	1
63	207	16.1	15
64	220	17.1	0
64	220	17.1	0
64	220	17.1	2
65	220	17.1	3
66	220	17.1	1
67	220	17.1	15
68	233	18.1	0
68	233	18.1	0
68	233	18.1	2
69	233	18.1	3
70	233	18.1	1
71	233	18.1	15
72	246	19.1	0
72	246	19.1	0
72	246	19.1	2
73	246	19.1	3
74	246	19.1	1
75	246	19.1	15
76	258	20	100
77	260	20	108
78	262	20	128
79	262	20	128
vector 80 Scenario.node[0].wlan[0].mac packetReceivedFromUpper:vector(packetBytes) ETV
attr interpolationmode none
attr title "packets received from upper layer, vector(packetBytes)"
vector 81 Scenario.node[0].wlan[0].mac.dcf.channelAccess.pendingQueue packetPushed:vector(packetBytes) ETV
attr interpolationmode none
attr title "packet pushed, vector(packetBytes)"
vector 82 Scenario.node[0].wlan[0].mac.dcf.channelAccess.pendingQueue queueLength:vector ETV
attr interpolationmode sample-hold
attr source "count(packetPushed) - count(packetPopped) - count(packetRemoved) - count(packetDropped)"
attr title "queue length, vector"
vector 83 Scenario.node[0].wlan[0].mac.dcf.channelAccess.contention backoffPeriodGenerated:vector ETV
attr interpolationmode none
attr title "backoff periods, vector"
vector 84 Scenario.node[0].wlan[0].mac.dcf.channelAccess.contention backoffActive:vector ETV
attr interpolationmode sample-hold
attr source count(backoffStarted)-count(backoffStopped)
attr title "backoff active, vector"
vector 85 Scenario.node[0].udp packetReceived:vector(packetBytes) ETV
attr interpolationmode none
attr source packetReceived
attr title "packets received, vector(packetBytes)"
vector 86 Scenario.node[0].udp passedUpPk:vector(count) ETV
attr interpolationmode none
attr source packetSentToUpper
attr title "packets passed up, vector(count)"
vector 87 Scenario.node[0].app[0] packetReceived:vector(packetBytes) ETV
attr interpolationmode none
attr source packetReceived
attr title "packets received, vector(packetBytes)"
vector 88 Scenario.node[0].app[0] throughput:vector ETV
attr source throughput(packetReceived)
attr title "throughput, vector"
attr unit bps
vector 89 Scenario.node[0].app[0] rcvdPkLifetime:vector ETV
attr interpolationmode none
attr source dataAge(packetReceived)
attr title "received packet lifetime, vector"
attr unit s
vector 90 Scenario.node[0].wlan[0].mac.dcf.channelAccess.pendingQueue packetPopped:vector(packetBytes) ETV
attr interpolationmode none
attr title "packet popped, vector(packetBytes)"
vector 91 Scenario.node[0].wlan[0].mac.dcf.channelAccess.pendingQueue queueingTime:vector ETV
attr interpolationmode none
attr source queueingTime(packetPopped)
attr title "queueing times, vector"
attr unit s
vector 92 Scenario.node[0].wlan[0].mac.dcf.channelAccess.inProgressFrames queueLength:vector ETV
attr interpolationmode sample-hold
attr source "count(packetEnqueued) - count(packetDequeued)"
attr title "queue length, vector"
vector 93 Scenario.node[0].wlan[0].mac.dcf datarateSelected:vector ETV
attr interpolationmode none
attr title "datarates selected, vector"
vector 94 Scenario.node[0].wlan[0].mac packetSentToLower:vector(packetBytes) ETV
attr interpolationmode none
attr title "packets sent to lower layer, vector(packetBytes)"
vector 95 Scenario.node[0].wlan[0].mac.dcf frameSequenceActive:vector ETV
attr interpolationmode sample-hold
attr source count(frameSequenceStarted)-count(frameSequenceFinished)
attr title "frame sequence active, vector"
vector 96 Scenario.node[0].wlan[0].radio transmissionState:vector ETV
attr interpolationmode sample-hold
attr source transmissionStateChanged
attr title "Radio transmission state, vector"
vector 97 Scenario.node[0].wlan[0].mac.dcf packetSentToPeer:vector(packetBytes) ETV
attr interpolationmode none
attr title "packets sent, vector(packetBytes)"
vector 98 Scenario.node[0].wlan[0].mac.dcf packetSentToPeerMulticast:vector(packetBytes) ETV
attr interpolationmode none
attr source ieee80211Multicast(packetSentToPeer)
attr title "packets sent: multicast, vector(packetBytes)"
vector 99 Scenario.node[0].wlan[0].mac.dcf packetSentToPeerWithoutRetry:vector(packetBytes) ETV
attr interpolationmode none
attr source ieee80211NotRetry(packetSentToPeer)
attr title "packets sent: without retry, vector(packetBytes)"
vector 100 Scenario.node[0].wlan[0].mac.dcf.channelAccess.inProgressFrames queueingTime:vector ETV
attr interpolationmode none
attr source queueingTime(packetDequeued)
attr title "queueing times, vector"
vector 101 Scenario.node[10].wlan[0].mac packetReceivedFromLower:vector(packetBytes) ETV
attr interpolationmode none
attr title "packets received from lower layer, vector(packetBytes)"
vector 102 Scenario.node[10].wlan[0].mac.dcf packetReceivedFromPeer:vector(packetBytes) ETV
attr interpolationmode none
attr title "packets received, vector(packetBytes)"
vector 103 Scenario.node[10].wlan[0].mac.dcf packetReceivedFromPeerMulticast:vector(packetBytes) ETV
attr interpolationmode none
attr source ieee80211Multicast(packetReceivedFromPeer)
attr title "packets received: multicast, vector(packetBytes)"
vector 104 Scenario.node[10].wlan[0].mac.dcf packetReceivedFromPeerWithoutRetry:vector(packetBytes) ETV
attr interpolationmode none
attr source ieee80211NotRetry(packetReceivedFromPeer)
attr title "packets received: without retry, vector(packetBytes)"
vector 105 Scenario.node[10].wlan[0].mac packetSentToUpper:vector(packetBytes) ETV
attr interpolationmode none
attr title "packets sent to upper layer, vector(packetBytes)"
vector 106 Scenario.node[10].udp packetReceived:vector(packetBytes) ETV
attr interpolationmode none
attr source packetReceived
attr title "packets received, vector(packetBytes)"
vector 107 Scenario.node[10].udp passedUpPk:vector(count) ETV
attr interpolationmode none
attr source packetSentToUpper
attr title "packets passed up, vector(count)"
vector 108 Scenario.node[10].app[0] packetReceived:vector(packetBytes) ETV
attr interpolationmode none
attr source packetReceived
attr title "packets received, vector(packetBytes)"
vector 109 Scenario.node[10].app[0] throughput:vector ETV
attr source throughput(packetReceived)
attr title "throughput, vector"
attr unit bps
vector 110 Scenario.node[10].app[0] rcvdPkLifetime:vector ETV
attr interpolationmode none
attr source dataAge(packetReceived)
attr title "received packet lifetime, vector"
attr unit s
vector 111 Scenario.node[10].app[0] packetSent:vector(packetBytes) ETV
attr interpolationmode none
attr source packetSent
attr title "packets sent, vector(packetBytes)"
vector 112 Scenario.node[10].udp packetSent:vector(packetBytes) ETV
attr interpolationmode none
attr source packetSent
attr title "packets sent, vector(packetBytes)"
vector 113 Scenario.node[10].lo[0].lo rcvdPkFromHl:vector(packetBytes) ETV
attr interpolationmode none
attr source packetReceivedFromUpper
attr title "packets received from higher layer, vector(packetBytes)"
vector 114 Scenario.node[10].lo[0].lo passedUpPk:vector(packetBytes) ETV
attr interpolationmode none
attr source packetSentToUpper
attr title "packets passed to higher layer, vector(packetBytes)"
vector 115 Scenario.node[10].wlan[0].mac packetReceivedFromUpper:vector(packetBytes) ETV
attr interpolationmode none
attr title "packets received from upper layer, vector(packetBytes)"
vector 116 Scenario.node[10].wlan[0].mac.dcf.channelAccess.pendingQueue packetPushed:vector(packetBytes) ETV
attr interpolationmode none
attr title "packet pushed, vector(packetBytes)"
vector 117 Scenario.node[10].wlan[0].mac.dcf.channelAccess.pendingQueue queueLength:vector ETV
attr interpolationmode sample-hold
attr source "count(packetPushed) - count(packetPopped) - count(packetRemoved) - count(packetDropped)"
attr title "queue length, vector"
vector 118 Scenario.node[10].wlan[0].mac.dcf.channelAccess.contention backoffPeriodGenerated:vector ETV
attr interpolationmode none
attr title "backoff periods, vector"
vector 119 Scenario.node[10].wlan[0].mac.dcf.channelAccess.contention backoffActive:vector ETV
attr interpolationmode sample-hold
attr source count(backoffStarted)-count(backoffStopped)
attr title "backoff active, vector"
vector 120 Scenario.node[13].wlan[0].mac packetReceivedFromLower:vector(packetBytes) ETV
attr interpolationmode none
attr title "packets received from lower layer, vector(packetBytes)"
vector 121 Scenario.node[13].wlan[0].mac.dcf packetReceivedFromPeer:vector(packetBytes) ETV
attr interpolationmode none
attr title "packets received, vector(packetBytes)"
vector 122 Scenario.node[13].wlan[0].mac.dcf packetReceivedFromPeerMulticast:vector(packetBytes) ETV
attr interpolationmode none
attr source ieee80211Multicast(packetReceivedFromPeer)
attr title "packets received: multicast, vector(packetBytes)"
vector 123 Scenario.node[13].wlan[0].mac.dcf packetReceivedFromPeerWithoutRetry:vector(packetBytes) ETV
attr interpolationmode none
attr source ieee80211NotRetry(packetReceivedFromPeer)
attr title "packets received: without retry, vector(packetBytes)"
vector 124 Scenario.node[13].wlan[0].mac packetSentToUpper:vector(packetBytes) ETV
attr interpolationmode none
attr title "packets sent to upper layer, vector(packetBytes)"
vector 125 Scenario.node[13].udp packetReceived:vector(packetBytes) ETV
attr interpolationmode none
attr source packetReceived
attr title "packets received, vector(packetBytes)"
vector 126 Scenario.node[13].udp passedUpPk:vector(count) ETV
attr interpolationmode none
attr source packetSentToUpper
attr title "packets passed up, vector(count)"
vector 127 Scenario.node[13].app[0] packetReceived:vector(packetBytes) ETV
attr interpolationmode none
attr source packetReceived
attr title "packets received, vector(packetBytes)"
vector 128 Scenario.node[13].app[0] throughput:vector ETV
attr source throughput(packetReceived)
attr title "throughput, vector"
attr unit bps
vector 129 Scenario.node[13].app[0] rcvdPkLifetime:vector ETV
attr interpolationmode none
attr source dataAge(packetReceived)
attr title "received packet lifetime, vector"
attr unit s
vector 130 Scenario.node[13].app[0] packetSent:vector(packetBytes) ETV
attr interpolationmode none
attr source packetSent
attr title "packets sent, vector(packetBytes)"
vector 131 Scenario.node[13].udp packetSent:vector(packetBytes) ETV
attr interpolationmode none
attr source packetSent
attr title "packets sent, vector(packetBytes)"
vector 132 Scenario.node[13].lo[0].lo rcvdPkFromHl:vector(packetBytes) ETV
attr interpolationmode none
attr source packetReceivedFromUpper
attr title "packets received from higher layer, vector(packetBytes)"
vector 133 Scenario.node[13].lo[0].lo passedUpPk:vector(packetBytes) ETV
attr interpolationmode none
attr source packetSentToUpper
attr title "packets passed to higher layer, vector(packetBytes)"
vector 134 Scenario.node[13].wlan[0].mac packetReceivedFromUpper:vector(packetBytes) ETV
attr interpolationmode none
attr title "packets received from upper layer, vector(packetBytes)"
vector 135 Scenario.node[13].wlan[0].mac.dcf.channelAccess.pendingQueue packetPushed:vector(packetBytes) ETV
attr interpolationmode none
attr title "packet pushed, vector(packetBytes)"
vector 136 Scenario.node[13].wlan[0].mac.dcf.channelAccess.pendingQueue queueLength:vector ETV
attr interpolationmode sample-hold
attr source "count(packetPushed) - count(packetPopped) - count(packetRemoved) - count(packetDropped)"
attr title "queue length, vector"
vector 137 Scenario.node[13].wlan[0].mac.dcf.channelAccess.contention backoffPeriodGenerated:vector ETV
attr interpolationmode none
attr title "backoff periods, vector"
vector 138 Scenario.node[13].wlan[0].mac.dcf.channelAccess.contention backoffActive:vector ETV
attr interpolationmode sample-hold
attr source count(backoffStarted)-count(backoffStopped)
attr title "backoff active, vector"
vector 139 Scenario.node[1].wlan[0].mac packetReceivedFromLower:vector(packetBytes) ETV
attr interpolationmode none
attr title "packets received from lower layer, vector(packetBytes)"
vector 140 Scenario.node[1].wlan[0].mac.dcf packetReceivedFromPeer:vector(packetBytes) ETV
attr interpolationmode none
attr title "packets received, vector(packetBytes)"
vector 141 Scenario.node[1].wlan[0].mac.dcf packetReceivedFromPeerMulticast:vector(packetBytes) ETV
attr interpolationmode none
attr source ieee80211Multicast(packetReceivedFromPeer)
attr title "packets received: multicast, vector(packetBytes)"
vector 142 Scenario.node[1].wlan[0].mac.dcf packetReceivedFromPeerWithoutRetry:vector(packetBytes) ETV
attr interpolationmode none
attr source ieee80211NotRetry(packetReceivedFromPeer)
attr title "packets received: without retry, vector(packetBytes)"
vector 143 Scenario.node[1].wlan[0].mac packetSentToUpper:vector(packetBytes) ETV
attr interpolationmode none
attr title "packets sent to upper layer, vector(packetBytes)"
vector 144 Scenario.node[1].udp packetReceived:vector(packetBytes) ETV
attr interpolationmode none
attr source packetReceived
attr title "packets received, vector(packetBytes)"
vector 145 Scenario.node[1].udp passedUpPk:vector(count) ETV
attr interpolationmode none
attr source packetSentToUpper
attr title "packets passed up, vector(count)"
vector 146 Scenario.node[1].app[0] packetReceived:vector(packetBytes) ETV
attr interpolationmode none
attr source packetReceived
attr title "packets received, vector(packetBytes)"
vector 147 Scenario.node[1].app[0] throughput:vector ETV
attr source throughput(packetReceived)
attr title "throughput, vector"
attr unit bps
vector 148 Scenario.node[1].app[0] rcvdPkLifetime:vector ETV
attr interpolationmode none
attr source dataAge(packetReceived)
attr title "received packet lifetime, vector"
attr unit s
vector 149 Scenario.node[1].app[0] packetSent:vector(packetBytes) ETV
attr interpolationmode none
attr source packetSent
attr title "packets sent, vector(packetBytes)"
vector 150 Scenario.node[1].udp packetSent:vector(packetBytes) ETV
attr interpolationmode none
attr source packetSent
attr title "packets sent, vector(packetBytes)"
vector 151 Scenario.node[1].lo[0].lo rcvdPkFromHl:vector(packetBytes) ETV
attr interpolationmode none
attr source packetReceivedFromUpper
attr title "packets received from higher layer, vector(packetBytes)"
vector 152 Scenario.node[1].lo[0].lo passedUpPk:vector(packetBytes) ETV
attr interpolationmode none
attr source packetSentToUpper
attr title "packets passed to higher layer, vector(packetBytes)"
vector 153 Scenario.node[1].wlan[0].mac packetReceivedFromUpper:vector(packetBytes) ETV
attr interpolationmode none
attr title "packets received from upper layer, vector(packetBytes)"
vector 154 Scenario.node[1].wlan[0].mac.dcf.channelAccess.pendingQueue packetPushed:vector(packetBytes) ETV
attr interpolationmode none
attr title "packet pushed, vector(packetBytes)"
vector 155 Scenario.node[1].wlan[0].mac.dcf.channelAccess.pendingQueue queueLength:vector ETV
attr interpolationmode sample-hold
attr source "count(packetPushed) - count(packetPopped) - count(packetRemoved) - count(packetDropped)"
attr title "queue length, vector"
vector 156 Scenario.node[1].wlan[0].mac.dcf.channelAccess.contention backoffPeriodGenerated:vector ETV
attr interpolationmode none
attr title "backoff periods, vector"
vector 157 Scenario.node[1].wlan[0].mac.dcf.channelAccess.contention backoffActive:vector ETV
attr interpolationmode sample-hold
attr source count(backoffStarted)-count(backoffStopped)
attr title "backoff active, vector"
vector 158 Scenario.node[3].wlan[0].mac packetReceivedFromLower:vector(packetBytes) ETV
attr interpolationmode none
attr title "packets received from lower layer, vector(packetBytes)"
vector 159 Scenario.node[3].wlan[0].mac.dcf packetReceivedFromPeer:vector(packetBytes) ETV
attr interpolationmode none
attr title "packets received, vector(packetBytes)"
vector 160 Scenario.node[3].wlan[0].mac.dcf packetReceivedFromPeerMulticast:vector(packetBytes) ETV
attr interpolationmode none
attr source ieee80211Multicast(packetReceivedFromPeer)
attr title "packets received: multicast, vector(packetBytes)"
vector 161 Scenario.node[3].wlan[0].mac.dcf packetReceivedFromPeerWithoutRetry:vector(packetBytes) ETV
attr interpolationmode none
attr source ieee80211NotRetry(packetReceivedFromPeer)
attr title "packets received: without retry, vector(packetBytes)"
vector 162 Scenario.node[3].wlan[0].mac packetSentToUpper:vector(packetBytes) ETV
attr interpolationmode none
attr title "packets sent to upper layer, vector(packetBytes)"
vector 163 Scenario.node[3].udp packetReceived:vector(packetBytes) ETV
attr interpolationmode none
attr source packetReceived
attr title "packets received, vector(packetBytes)"
vector 164 Scenario.node[3].udp passedUpPk:vector(count) ETV
attr interpolationmode none
attr source packetSentToUpper
attr title "packets passed up, vector(count)"
vector 165 Scenario.node[3].app[0] packetReceived:vector(packetBytes) ETV
attr interpolationmode none
attr source packetReceived
attr title "packets received, vector(packetBytes)"
vector 166 Scenario.node[3].app[0] throughput:vector ETV
attr source throughput(packetReceived)
attr title "throughput, vector"
attr unit bps
vector 167 Scenario.node[3].app[0] rcvdPkLifetime:vector ETV
attr interpolationmode none
attr source dataAge(packetReceived)
attr title "received packet lifetime, vector"
attr unit s
vector 168 Scenario.node[3].app[0] packetSent:vector(packetBytes) ETV
attr interpolationmode none
attr source packetSent
attr title "packets sent, vector(packetBytes)"
vector 169 Scenario.node[3].udp packetSent:vector(packetBytes) ETV
attr interpolationmode none
attr source packetSent
attr title "packets sent, vector(packetBytes)"
vector 170 Scenario.node[3].lo[0].lo rcvdPkFromHl:vector(packetBytes) ETV
attr interpolationmode none
attr source packetReceivedFromUpper
attr title "packets received from higher layer, vector(packetBytes)"
vector 171 Scenario.node[3].lo[0].lo passedUpPk:vector(packetBytes) ETV
attr interpolationmode none
attr source packetSentToUpper
attr title "packets passed to higher layer, vector(packetBytes)"
vector 172 Scenario.node[3].wlan[0].mac packetReceivedFromUpper:vector(packetBytes) ETV
attr interpolationmode none
attr title "packets received from upper layer, vector(packetBytes)"
vector 173 Scenario.node[3].wlan[0].mac.dcf.channelAccess.pendingQueue packetPushed:vector(packetBytes) ETV
attr interpolationmode none
attr title "packet pushed, vector(packetBytes)"
vector 174 Scenario.node[3].wlan[0].mac.dcf.channelAccess.pendingQueue queueLength:vector ETV
attr interpolationmode sample-hold
attr source "count(packetPushed) - count(packetPopped) - count(packetRemoved) - count(packetDropped)"
attr title "queue length, vector"
vector 175 Scenario.node[3].wlan[0].mac.dcf.channelAccess.contention backoffPeriodGenerated:vector ETV
attr interpolationmode none
attr title "backoff periods, vector"
vector 176 Scenario.node[3].wlan[0].mac.dcf.channelAccess.contention backoffActive:vector ETV
attr interpolationmode sample-hold
attr source count(backoffStarted)-count(backoffStopped)
attr title "backoff active, vector"
vector 177 Scenario.node[13].wlan[0].mac.dcf.channelAccess.pendingQueue packetPopped:vector(packetBytes) ETV
attr interpolationmode none
attr title "packet popped, vector(packetBytes)"
vector 178 Scenario.node[13].wlan[0].mac.dcf.channelAccess.pendingQueue queueingTime:vector ETV
attr interpolationmode none
attr source queueingTime(packetPopped)
attr title "queueing times, vector"
attr unit s
vector 179 Scenario.node[13].wlan[0].mac.dcf.channelAccess.inProgressFrames queueLength:vector ETV
attr interpolationmode sample-hold
attr source "count(packetEnqueued) - count(packetDequeued)"
attr title "queue length, vector"
vector 180 Scenario.node[13].wlan[0].mac.dcf datarateSelected:vector ETV
attr interpolationmode none
attr title "datarates selected, vector"
vector 181 Scenario.node[13].wlan[0].mac packetSentToLower:vector(packetBytes) ETV
attr interpolationmode none
attr title "packets sent to lower layer, vector(packetBytes)"
vector 182 Scenario.node[13].wlan[0].mac.dcf frameSequenceActive:vector ETV
attr interpolationmode sample-hold
attr source count(frameSequenceStarted)-count(frameSequenceFinished)
attr title "frame sequence active, vector"
vector 183 Scenario.node[13].wlan[0].radio transmissionState:vector ETV
attr interpolationmode sample-hold
attr source transmissionStateChanged
attr title "Radio transmission state, vector"
vector 184 Scenario.node[13].wlan[0].mac.dcf packetSentToPeer:vector(packetBytes) ETV
attr interpolationmode none
attr title "packets sent, vector(packetBytes)"
vector 185 Scenario.node[13].wlan[0].mac.dcf packetSentToPeerMulticast:vector(packetBytes) ETV
attr interpolationmode none
attr source ieee80211Multicast(packetSentToPeer)
attr title "packets sent: multicast, vector(packetBytes)"
vector 186 Scenario.node[13].wlan[0].mac.dcf packetSentToPeerWithoutRetry:vector(packetBytes) ETV
attr interpolationmode none
attr source ieee80211NotRetry(packetSentToPeer)
attr title "packets sent: without retry, vector(packetBytes)"
vector 187 Scenario.node[13].wlan[0].mac.dcf.channelAccess.inProgressFrames queueingTime:vector ETV
attr interpolationmode none
attr source queueingTime(packetDequeued)
attr title "queueing times, vector"
vector 188 Scenario.node[0].wlan[0].mac packetReceivedFromLower:vector(packetBytes) ETV
attr interpolationmode none
attr title "packets received from lower layer, vector(packetBytes)"
vector 189 Scenario.node[0].wlan[0].mac.dcf packetReceivedFromPeer:vector(packetBytes) ETV
attr interpolationmode none
attr title "packets received, vector(packetBytes)"
vector 190 Scenario.node[0].wlan[0].mac.dcf packetReceivedFromPeerMulticast:vector(packetBytes) ETV
attr interpolationmode none
attr source ieee80211Multicast(packetReceivedFromPeer)
attr title "packets received: multicast, vector(packetBytes)"
vector 191 Scenario.node[0].wlan[0].mac.dcf packetReceivedFromPeerWithoutRetry:vector(packetBytes) ETV
attr interpolationmode none
attr source ieee80211NotRetry(packetReceivedFromPeer)
attr title "packets received: without retry, vector(packetBytes)"
vector 192 Scenario.node[0].wlan[0].mac packetSentToUpper:vector(packetBytes) ETV
attr interpolationmode none
attr title "packets sent to upper layer, vector(packetBytes)"
vector 193 Scenario.node[4].wlan[0].mac packetReceivedFromLower:vector(packetBytes) ETV
attr interpolationmode none
attr title "packets received from lower layer, vector(packetBytes)"
vector 194 Scenario.node[4].wlan[0].mac.dcf packetReceivedFromPeer:vector(packetBytes) ETV
attr interpolationmode none
attr title "packets received, vector(packetBytes)"
vector 195 Scenario.node[4].wlan[0].mac.dcf packetReceivedFromPeerMulticast:vector(packetBytes) ETV
attr interpolationmode none
attr source ieee80211Multicast(packetReceivedFromPeer)
attr title "packets received: multicast, vector(packetBytes)"
vector 196 Scenario.node[4].wlan[0].mac.dcf packetReceivedFromPeerWithoutRetry:vector(packetBytes) ETV
attr interpolationmode none
attr source ieee80211NotRetry(packetReceivedFromPeer)
attr title "packets received: without retry, vector(packetBytes)"
vector 197 Scenario.node[4].wlan[0].mac packetSentToUpper:vector(packetBytes) ETV
attr interpolationmode none
attr title "packets sent to upper layer, vector(packetBytes)"
vector 198 Scenario.node[4].udp packetReceived:vector(packetBytes) ETV
attr interpolationmode none
attr source packetReceived
attr title "packets received, vector(packetBytes)"
vector 199 Scenario.node[4].udp passedUpPk:vector(count) ETV
attr interpolationmode none
attr source packetSentToUpper
attr title "packets passed up, vector(count)"
vector 200 Scenario.node[4].app[0] packetReceived:vector(packetBytes) ETV
attr interpolationmode none
attr source packetReceived
attr title "packets received, vector(packetBytes)"
vector 201 Scenario.node[4].app[0] throughput:vector ETV
attr source throughput(packetReceived)
attr title "throughput, vector"
attr unit bps
vector 202 Scenario.node[4].app[0] rcvdPkLifetime:vector ETV
attr interpolationmode none
attr source dataAge(packetReceived)
attr title "received packet lifetime, vector"
attr unit s
vector 203 Scenario.node[4].app[0] packetSent:vector(packetBytes) ETV
attr interpolationmode none
attr source packetSent
attr title "packets sent, vector(packetBytes)"
vector 204 Scenario.node[4].udp packetSent:vector(packetBytes) ETV
attr interpolationmode none
attr source packetSent
attr title "packets sent, vector(packetBytes)"
vector 205 Scenario.node[4].lo[0].lo rcvdPkFromHl:vector(packetBytes) ETV
attr interpolationmode none
attr source packetReceivedFromUpper
attr title "packets received from higher layer, vector(packetBytes)"
vector 206 Scenario.node[4].lo[0].lo passedUpPk:vector(packetBytes) ETV
attr interpolationmode none
attr source packetSentToUpper
attr title "packets passed to higher layer, vector(packetBytes)"
vector 207 Scenario.node[4].wlan[0].mac packetReceivedFromUpper:vector(packetBytes) ETV
attr interpolationmode none
attr title "packets received from upper layer, vector(packetBytes)"
vector 208 Scenario.node[4].wlan[0].mac.dcf.channelAccess.pendingQueue packetPushed:vector(packetBytes) ETV
attr interpolationmode none
attr title "packet pushed, vector(packetBytes)"
vector 209 Scenario.node[4].wlan[0].mac.dcf.channelAccess.pendingQueue queueLength:vector ETV
attr interpolationmode sample-hold
attr source "count(packetPushed) - count(packetPopped) - count(packetRemoved) - count(packetDropped)"
attr title "queue length, vector"
vector 210 Scenario.node[4].wlan[0].mac.dcf.channelAccess.contention backoffPeriodGenerated:vector ETV
attr interpolationmode none
attr title "backoff periods, vector"
vector 211 Scenario.node[4].wlan[0].mac.dcf.channelAccess.contention backoffActive:vector ETV
attr interpolationmode sample-hold
attr source count(backoffStarted)-count(backoffStopped)
attr title "backoff active, vector"
vector 212 Scenario.node[4].wlan[0].mac.dcf.channelAccess.pendingQueue packetPopped:vector(packetBytes) ETV
attr interpolationmode none
attr title "packet popped, vector(packetBytes)"
vector 213 Scenario.node[4].wlan[0].mac.dcf.channelAccess.pendingQueue queueingTime:vector ETV
attr interpolationmode none
attr source queueingTime(packetPopped)
attr title "queueing times, vector"
attr unit s
vector 214 Scenario.node[4].wlan[0].mac.dcf.channelAccess.inProgressFrames queueLength:vector ETV
attr interpolationmode sample-hold
attr source "count(packetEnqueued) - count(packetDequeued)"
attr title "queue length, vector"
vector 215 Scenario.node[4].wlan[0].mac.dcf datarateSelected:vector ETV
attr interpolationmode none
attr title "datarates selected, vector"
vector 216 Scenario.node[4].wlan[0].mac packetSentToLower:vector(packetBytes) ETV
attr interpolationmode none
attr title "packets sent to lower layer, vector(packetBytes)"
vector 217 Scenario.node[4].wlan[0].mac.dcf frameSequenceActive:vector ETV
attr interpolationmode sample-hold
attr source count(frameSequenceStarted)-count(frameSequenceFinished)
attr title "frame sequence active, vector"
vector 218 Scenario.node[4].wlan[0].radio transmissionState:vector ETV
attr interpolationmode sample-hold
attr source transmissionStateChanged
attr title "Radio transmission state, vector"
vector 219 Scenario.node[10].wlan[0].mac packetDrop:vector(packetBytes) ETV
attr interpolationmode none
attr source packetDropped
attr title "packet drops, vector(packetBytes)"
vector 220 Scenario.node[10].wlan[0].mac packetDropIncorrectlyReceived:vector(packetBytes) ETV
attr interpolationmode none
attr source packetDropReasonIsIncorrectlyReceived(packetDropped)
attr title "packet drops: incorrectly received, vector(packetBytes)"
vector 221 Scenario.node[13].wlan[0].mac packetDrop:vector(packetBytes) ETV
attr interpolationmode none
attr source packetDropped
attr title "packet drops, vector(packetBytes)"
vector 222 Scenario.node[13].wlan[0].mac packetDropIncorrectlyReceived:vector(packetBytes) ETV
attr interpolationmode none
attr source packetDropReasonIsIncorrectlyReceived(packetDropped)
attr title "packet drops: incorrectly received, vector(packetBytes)"
vector 223 Scenario.node[1].wlan[0].mac packetDrop:vector(packetBytes) ETV
attr interpolationmode none
attr source packetDropped
attr title "packet drops, vector(packetBytes)"
vector 224 Scenario.node[1].wlan[0].mac packetDropIncorrectlyReceived:vector(packetBytes) ETV
attr interpolationmode none
attr source packetDropReasonIsIncorrectlyReceived(packetDropped)
attr title "packet drops: incorrectly received, vector(packetBytes)"
vector 225 Scenario.node[3].wlan[0].mac packetDrop:vector(packetBytes) ETV
attr interpolationmode none
attr source packetDropped
attr title "packet drops, vector(packetBytes)"
vector 226 Scenario.node[3].wlan[0].mac packetDropIncorrectlyReceived:vector(packetBytes) ETV
attr interpolationmode none
attr source packetDropReasonIsIncorrectlyReceived(packetDropped)
attr title "packet drops: incorrectly received, vector(packetBytes)"
vector 227 Scenario.node[4].wlan[0].mac.dcf packetSentToPeer:vector(packetBytes) ETV
attr interpolationmode none
attr title "packets sent, vector(packetBytes)"
vector 228 Scenario.node[4].wlan[0].mac.dcf packetSentToPeerMulticast:vector(packetBytes) ETV
attr interpolationmode none
attr source ieee80211Multicast(packetSentToPeer)
attr title "packets sent: multicast, vector(packetBytes)"
vector 229 Scenario.node[4].wlan[0].mac.dcf packetSentToPeerWithoutRetry:vector(packetBytes) ETV
attr interpolationmode none
attr source ieee80211NotRetry(packetSentToPeer)
attr title "packets sent: without retry, vector(packetBytes)"
vector 230 Scenario.node[4].wlan[0].mac.dcf.channelAccess.inProgressFrames queueingTime:vector ETV
attr interpolationmode none
attr source queueingTime(packetDequeued)
attr title "queueing times, vector"
vector 231 Scenario.node[10].wlan[0].mac.dcf.channelAccess.pendingQueue packetPopped:vector(packetBytes) ETV
attr interpolationmode none
attr title "packet popped, vector(packetBytes)"
vector 232 Scenario.node[10].wlan[0].mac.dcf.channelAccess.pendingQueue queueingTime:vector ETV
attr interpolationmode none
attr source queueingTime(packetPopped)
attr title "queueing times, vector"
attr unit s
vector 233 Scenario.node[10].wlan[0].mac.dcf.channelAccess.inProgressFrames queueLength:vector ETV
attr interpolationmode sample-hold
attr source "count(packetEnqueued) - count(packetDequeued)"
attr title "queue length, vector"
vector 234 Scenario.node[10].wlan[0].mac.dcf datarateSelected:vector ETV
attr interpolationmode none
attr title "datarates selected, vector"
vector 235 Scenario.node[10].wlan[0].mac packetSentToLower:vector(packetBytes) ETV
attr interpolationmode none
attr title "packets sent to lower layer, vector(packetBytes)"
vector 236 Scenario.node[10].wlan[0].mac.dcf frameSequenceActive:vector ETV
attr interpolationmode sample-hold
attr source count(frameSequenceStarted)-count(frameSequenceFinished)
attr title "frame sequence active, vector"
vector 237 Scenario.node[10].wlan[0].radio transmissionState:vector ETV
attr interpolationmode sample-hold
attr source transmissionStateChanged
attr title "Radio transmission state, vector"
vector 238 Scenario.node[10].wlan[0].mac.dcf packetSentToPeer:vector(packetBytes) ETV
attr interpolationmode none
attr title "packets sent, vector(packetBytes)"
vector 239 Scenario.node[10].wlan[0].mac.dcf packetSentToPeerMulticast:vector(packetBytes) ETV
attr interpolationmode none
attr source ieee80211Multicast(packetSentToPeer)
attr title "packets sent: multicast, vector(packetBytes)"
vector 240 Scenario.node[10].wlan[0].mac.dcf packetSentToPeerWithoutRetry:vector(packetBytes) ETV
attr interpolationmode none
attr source ieee80211NotRetry(packetSentToPeer)
attr title "packets sent: without retry, vector(packetBytes)"
vector 241 Scenario.node[10].wlan[0].mac.dcf.channelAccess.inProgressFrames queueingTime:vector ETV
attr interpolationmode none
attr source queueingTime(packetDequeued)
attr title "queueing times, vector"
vector 242 Scenario.node[3].wlan[0].mac.dcf.channelAccess.pendingQueue packetPopped:vector(packetBytes) ETV
attr interpolationmode none
attr title "packet popped, vector(packetBytes)"
vector 243 Scenario.node[3].wlan[0].mac.dcf.channelAccess.pendingQueue queueingTime:vector ETV
attr interpolationmode none
attr source queueingTime(packetPopped)
attr title "queueing times, vector"
attr unit s
vector 244 Scenario.node[3].wlan[0].mac.dcf.channelAccess.inProgressFrames queueLength:vector ETV
attr interpolationmode sample-hold
attr source "count(packetEnqueued) - count(packetDequeued)"
attr title "queue length, vector"
vector 245 Scenario.node[3].wlan[0].mac.dcf datarateSelected:vector ETV
attr interpolationmode none
attr title "datarates selected, vector"
vector 246 Scenario.node[3].wlan[0].mac packetSentToLower:vector(packetBytes) ETV
attr interpolationmode none
attr title "packets sent to lower layer, vector(packetBytes)"
vector 247 Scenario.node[3].wlan[0].mac.dcf frameSequenceActive:vector ETV
attr interpolationmode sample-hold
attr source count(frameSequenceStarted)-count(frameSequenceFinished)
attr title "frame sequence active, vector"
vector 248 Scenario.node[3].wlan[0].radio transmissionState:vector ETV
attr interpolationmode sample-hold
attr source transmissionStateChanged
attr title "Radio transmission state, vector"
vector 249 Scenario.node[3].wlan[0].mac.dcf packetSentToPeer:vector(packetBytes) ETV
attr interpolationmode none
attr title "packets sent, vector(packetBytes)"
vector 250 Scenario.node[3].wlan[0].mac.dcf packetSentToPeerMulticast:vector(packetBytes) ETV
attr interpolationmode none
attr source ieee80211Multicast(packetSentToPeer)
attr title "packets sent: multicast, vector(packetBytes)"
vector 251 Scenario.node[3].wlan[0].mac.dcf packetSentToPeerWithoutRetry:vector(packetBytes) ETV
attr interpolationmode none
attr source ieee80211NotRetry(packetSentToPeer)
attr title "packets sent: without retry, vector(packetBytes)"
vector 252 Scenario.node[3].wlan[0].mac.dcf.channelAccess.inProgressFrames queueingTime:vector ETV
attr interpolationmode none
attr source queueingTime(packetDequeued)
attr title "queueing times, vector"
vector 253 Scenario.node[1].wlan[0].mac.dcf.channelAccess.pendingQueue packetPopped:vector(packetBytes) ETV
attr interpolationmode none
attr title "packet popped, vector(packetBytes)"
vector 254 Scenario.node[1].wlan[0].mac.dcf.channelAccess.pendingQueue queueingTime:vector ETV
attr interpolationmode none
attr source queueingTime(packetPopped)
attr title "queueing times, vector"
attr unit s
vector 255 Scenario.node[1].wlan[0].mac.dcf.channelAccess.inProgressFrames queueLength:vector ETV
attr interpolationmode sample-hold
attr source "count(packetEnqueued) - count(packetDequeued)"
attr title "queue length, vector"
vector 256 Scenario.node[1].wlan[0].mac.dcf datarateSelected:vector ETV
attr interpolationmode none
attr title "datarates selected, vector"
vector 257 Scenario.node[1].wlan[0].mac packetSentToLower:vector(packetBytes) ETV
attr interpolationmode none
attr title "packets sent to lower layer, vector(packetBytes)"
vector 258 Scenario.node[1].wlan[0].mac.dcf frameSequenceActive:vector ETV
attr interpolationmode sample-hold
attr source count(frameSequenceStarted)-count(frameSequenceFinished)
attr title "frame sequence active, vector"
vector 259 Scenario.node[1].wlan[0].radio transmissionState:vector ETV
attr interpolationmode sample-hold
attr source transmissionStateChanged
attr title "Radio transmission state, vector"
vector 260 Scenario.node[1].wlan[0].mac.dcf packetSentToPeer:vector(packetBytes) ETV
attr interpolationmode none
attr title "packets sent, vector(packetBytes)"
vector 261 Scenario.node[1].wlan[0].mac.dcf packetSentToPeerMulticast:vector(packetBytes) ETV
attr interpolationmode none
attr source ieee80211Multicast(packetSentToPeer)
attr title "packets sent: multicast, vector(packetBytes)"
vector 262 Scenario.node[1].wlan[0].mac.dcf packetSentToPeerWithoutRetry:vector(packetBytes) ETV
attr interpolationmode none
attr source ieee80211NotRetry(packetSentToPeer)
attr title "packets sent: without retry, vector(packetBytes)"
vector 263 Scenario.node[1].wlan[0].mac.dcf.channelAccess.inProgressFrames queueingTime:vector ETV
attr interpolationmode none
attr source queueingTime(packetDequeued)
attr title "queueing times, vector"
vector 264 Scenario.node[19].wlan[0].radio radioMode:vector ETV
attr interpolationmode sample-hold
attr source radioModeChanged
attr title "Radio mode, vector"
vector 265 Scenario.node[19].wlan[0].radio radioChannel:vector ETV
attr interpolationmode sample-hold
attr source radioChannelChanged
attr title "Radio channel, vector"
vector 266 Scenario.node[19].wlan[0].radio receptionState:vector ETV
attr interpolationmode sample-hold
attr source receptionStateChanged
attr title "Radio reception state, vector"
vector 267 Scenario.node[19].wlan[0].mac.dcf.recoveryProcedure contentionWindowChanged:vector ETV
attr interpolationmode sample-hold
attr title "contention window, vector"
vector 268 Scenario.node[20].wlan[0].radio radioMode:vector ETV
attr interpolationmode sample-hold
attr source radioModeChanged
attr title "Radio mode, vector"
vector 269 Scenario.node[20].wlan[0].radio radioChannel:vector ETV
attr interpolationmode sample-hold
attr source radioChannelChanged
attr title "Radio channel, vector"
vector 270 Scenario.node[20].wlan[0].radio receptionState:vector ETV
attr interpolationmode sample-hold
attr source receptionStateChanged
attr title "Radio reception state, vector"
vector 271 Scenario.node[20].wlan[0].mac.dcf.recoveryProcedure contentionWindowChanged:vector ETV
attr interpolationmode sample-hold
attr title "contention window, vector"
vector 272 Scenario.node[21].wlan[0].radio radioMode:vector ETV
attr interpolationmode sample-hold
attr source radioModeChanged
attr title "Radio mode, vector"
vector 273 Scenario.node[21].wlan[0].radio radioChannel:vector ETV
attr interpolationmode sample-hold
attr source radioChannelChanged
attr title "Radio channel, vector"
vector 274 Scenario.node[21].wlan[0].radio receptionState:vector ETV
attr interpolationmode sample-hold
attr source receptionStateChanged
attr title "Radio reception state, vector"
vector 275 Scenario.node[21].wlan[0].mac.dcf.recoveryProcedure contentionWindowChanged:vector ETV
attr interpolationmode sample-hold
attr title "contention window, vector"
vector 276 Scenario.node[22].wlan[0].radio radioMode:vector ETV
attr interpolationmode sample-hold
attr source radioModeChanged
attr title "Radio mode, vector"
vector 277 Scenario.node[22].wlan[0].radio radioChannel:vector ETV
attr interpolationmode sample-hold
attr source radioChannelChanged
attr title "Radio channel, vector"
vector 278 Scenario.node[22].wlan[0].radio receptionState:vector ETV
attr interpolationmode sample-hold
attr source receptionStateChanged
attr title "Radio reception state, vector"
vector 279 Scenario.node[22].wlan[0].mac.dcf.recoveryProcedure contentionWindowChanged:vector ETV
attr interpolationmode sample-hold
attr title "contention window, vector"
vector 280 Scenario.node[23].wlan[0].radio radioMode:vector ETV
attr interpolationmode sample-hold
attr source radioModeChanged
attr title "Radio mode, vector"
vector 281 Scenario.node[23].wlan[0].radio radioChannel:vector ETV
attr interpolationmode sample-hold
attr source radioChannelChanged
attr title "Radio channel, vector"
vector 282 Scenario.node[23].wlan[0].radio receptionState:vector ETV
attr interpolationmode sample-hold
attr source receptionStateChanged
attr title "Radio reception state, vector"
vector 283 Scenario.node[23].wlan[0].mac.dcf.recoveryProcedure contentionWindowChanged:vector ETV
attr interpolationmode sample-hold
attr title "contention window, vector"
vector 284 Scenario.node[24].wlan[0].radio radioMode:vector ETV
attr interpolationmode sample-hold
attr source radioModeChanged
attr title "Radio mode, vector"
vector 285 Scenario.node[24].wlan[0].radio radioChannel:vector ETV
attr interpolationmode sample-hold
attr source radioChannelChanged
attr title "Radio channel, vector"
vector 286 Scenario.node[24].wlan[0].radio receptionState:vector ETV
attr interpolationmode sample-hold
attr source receptionStateChanged
attr title "Radio reception state, vector"
vector 287 Scenario.node[24].wlan[0].mac.dcf.recoveryProcedure contentionWindowChanged:vector ETV
attr interpolationmode sample-hold
attr title "contention window, vector"
vector 288 Scenario.node[25].wlan[0].radio radioMode:vector ETV
attr interpolationmode sample-hold
attr source radioModeChanged
attr title "Radio mode, vector"
vector 289 Scenario.node[25].wlan[0].radio radioChannel:vector ETV
attr interpolationmode sample-hold
attr source radioChannelChanged
attr title "Radio channel, vector"
vector 290 Scenario.node[25].wlan[0].radio receptionState:vector ETV
attr interpolationmode sample-hold
attr source receptionStateChanged
attr title "Radio reception state, vector"
vector 291 Scenario.node[25].wlan[0].mac.dcf.recoveryProcedure contentionWindowChanged:vector ETV
attr interpolationmode sample-hold
attr title "contention window, vector"
vector 292 Scenario.node[26].wlan[0].radio radioMode:vector ETV
attr interpolationmode sample-hold
attr source radioModeChanged
attr title "Radio mode, vector"
vector 293 Scenario.node[26].wlan[0].radio radioChannel:vector ETV
attr interpolationmode sample-hold
attr source radioChannelChanged
attr title "Radio channel, vector"
vector 294 Scenario.node[26].wlan[0].radio receptionState:vector ETV
attr interpolationmode sample-hold
attr source receptionStateChanged
attr title "Radio reception state, vector"
vector 295 Scenario.node[26].wlan[0].mac.dcf.recoveryProcedure contentionWindowChanged:vector ETV
attr interpolationmode sample-hold
attr title "contention window, vector"
vector 296 Scenario.node[27].wlan[0].radio radioMode:vector ETV
attr interpolationmode sample-hold
attr source radioModeChanged
attr title "Radio mode, vector"
vector 297 Scenario.node[27].wlan[0].radio radioChannel:vector ETV
attr interpolationmode sample-hold
attr source radioChannelChanged
attr title "Radio channel, vector"
vector 298 Scenario.node[27].wlan[0].radio receptionState:vector ETV
attr interpolationmode sample-hold
attr source receptionStateChanged
attr title "Radio reception state, vector"
vector 299 Scenario.node[27].wlan[0].mac.dcf.recoveryProcedure contentionWindowChanged:vector ETV
attr interpolationmode sample-hold
attr title "contention window, vector"
vector 300 Scenario.node[28].wlan[0].radio radioMode:vector ETV
attr interpolationmode sample-hold
attr source radioModeChanged
attr title "Radio mode, vector"
vector 301 Scenario.node[28].wlan[0].radio radioChannel:vector ETV
attr interpolationmode sample-hold
attr source radioChannelChanged
attr title "Radio channel, vector"
vector 302 Scenario.node[28].wlan[0].radio receptionState:vector ETV
attr interpolationmode sample-hold
attr source receptionStateChanged
attr title "Radio reception state, vector"
vector 303 Scenario.node[28].wlan[0].mac.dcf.recoveryProcedure contentionWindowChanged:vector ETV
attr interpolationmode sample-hold
attr title "contention window, vector"
vector 304 Scenario.node[29].wlan[0].radio radioMode:vector ETV
attr interpolationmode sample-hold
attr source radioModeChanged
attr title "Radio mode, vector"
vector 305 Scenario.node[29].wlan[0].radio radioChannel:vector ETV
attr interpolationmode sample-hold
attr source radioChannelChanged
attr title "Radio channel, vector"
vector 306 Scenario.node[29].wlan[0].radio receptionState:vector ETV
attr interpolationmode sample-hold
attr source receptionStateChanged
attr title "Radio reception state, vector"
vector 307 Scenario.node[29].wlan[0].mac.dcf.recoveryProcedure contentionWindowChanged:vector ETV
attr interpolationmode sample-hold
attr title "contention window, vector"
vector 308 Scenario.node[30].wlan[0].radio radioMode:vector ETV
attr interpolationmode sample-hold
attr source radioModeChanged
attr title "Radio mode, vector"
vector 309 Scenario.node[30].wlan[0].radio radioChannel:vector ETV
attr interpolationmode sample-hold
attr source radioChannelChanged
attr title "Radio channel, vector"
vector 310 Scenario.node[30].wlan[0].radio receptionState:vector ETV
attr interpolationmode sample-hold
attr source receptionStateChanged
attr title "Radio reception state, vector"
vector 311 Scenario.node[30].wlan[0].mac.dcf.recoveryProcedure contentionWindowChanged:vector ETV
attr interpolationmode sample-hold
attr title "contention window, vector"
vector 312 Scenario.node[31].wlan[0].radio radioMode:vector ETV
attr interpolationmode sample-hold
attr source radioModeChanged
attr title "Radio mode, vector"
vector 313 Scenario.node[31].wlan[0].radio radioChannel:vector ETV
attr interpolationmode sample-hold
attr source radioChannelChanged
attr title "Radio channel, vector"
vector 314 Scenario.node[31].wlan[0].radio receptionState:vector ETV
attr interpolationmode sample-hold
attr source receptionStateChanged
attr title "Radio reception state, vector"
vector 315 Scenario.node[31].wlan[0].mac.dcf.recoveryProcedure contentionWindowChanged:vector ETV
attr interpolationmode sample-hold
attr title "contention window, vector"
vector 316 Scenario.node[32].wlan[0].radio radioMode:vector ETV
attr interpolationmode sample-hold
attr source radioModeChanged
attr title "Radio mode, vector"
vector 317 Scenario.node[32].wlan[0].radio radioChannel:vector ETV
attr interpolationmode sample-hold
attr source radioChannelChanged
attr title "Radio channel, vector"
vector 318 Scenario.node[32].wlan[0].radio receptionState:vector ETV
attr interpolationmode sample-hold
attr source receptionStateChanged
attr title "Radio reception state, vector"
vector 319 Scenario.node[32].wlan[0].mac.dcf.recoveryProcedure contentionWindowChanged:vector ETV
attr interpolationmode sample-hold
attr title "contention window, vector"
vector 320 Scenario.node[33].wlan[0].radio radioMode:vector ETV
attr interpolationmode sample-hold
attr source radioModeChanged
attr title "Radio mode, vector"
vector 321 Scenario.node[33].wlan[0].radio radioChannel:vector ETV
attr interpolationmode sample-hold
attr source radioChannelChanged
attr title "Radio channel, vector"
vector 322 Scenario.node[33].wlan[0].radio receptionState:vector ETV
attr interpolationmode sample-hold
attr source receptionStateChanged
attr title "Radio reception state, vector"
vector 323 Scenario.node[33].wlan[0].mac.dcf.recoveryProcedure contentionWindowChanged:vector ETV
attr interpolationmode sample-hold
attr title "contention window, vector"
113	308	20.000152253577	128
114	308	20.000152253577	128
101	301	20.000152253577	158
101	395	20.000401495096	158
101	492	20.000625001117	158
101	643	20.001272154303	158
101	698	20.001521419119	158
235	534	20.000856281729	158
115	311	20.000152253577	130
105	301	20.000152253577	130
105	395	20.000401495096	130
105	643	20.001272154303	130
105	698	20.001521419119	130
220	492	20.000625001117	158
219	492	20.000625001117	158
104	301	20.000152253577	158
104	395	20.000401495096	158
104	643	20.001272154303	158
104	698	20.001521419119	158
103	301	20.000152253577	158
103	395	20.000401495096	158
103	643	20.001272154303	158
103	698	20.001521419119	158
102	301	20.000152253577	158
102	395	20.000401495096	158
102	643	20.001272154303	158
102	698	20.001521419119	158
240	555	20.001008281729	158
239	555	20.001008281729	158
238	555	20.001008281729	158
236	534	20.000856281729	1
236	555	20.001008281729	0
234	534	20.000856281729	12000000
232	534	20.000856281729	0.000704028152
231	534	20.000856281729	158
116	311	20.000152253577	158
117	311	20.000152253577	1
117	534	20.000856281729	0
241	555	20.001008281729	0.000152
233	534	20.000856281729	1
233	555	20.001008281729	0
119	311	20.000152253577	1
119	374	20.000249495096	0
119	394	20.000401495096	1
119	449	20.000473001117	0
119	518	20.000639281729	1
119	533	20.000856281729	0
118	311	20.000152253577	7
237	535	20.000856281729	1
237	536	20.000856281729	2
237	555	20.001008281729	1
237	556	20.001008281729	0
42	280	20.000000253577	3
42	300	20.000152253577	1
42	374	20.000249495096	3
42	394	20.000401495096	1
42	449	20.000473001117	3
42	491	20.000625001117	2
42	518	20.000639281729	1
42	535	20.000856281729	0
42	556	20.001008281729	1
42	607	20.001120154303	3
42	642	20.001272154303	1
42	672	20.001369419119	3
42	697	20.001521419119	1
40	535	20.000856281729	3
40	556	20.001008281729	2
106	304	20.000152253577	108
106	312	20.000152253577	108
106	398	20.000401495096	108
106	646	20.001272154303	108
106	701	20.001521419119	108
112	306	20.000152253577	108
107	304	20.000152253577	1
107	312	20.000152253577	2
107	398	20.000401495096	3
107	646	20.001272154303	4
107	701	20.001521419119	5
110	305	20.000152253577	0.000152253577
110	313	20.000152253577	0.000152253577
110	399	20.000401495096	0.000401495096
110	647	20.001272154303	0.001272154303
110	702	20.001521419119	0.001521419119
109	305	0.1	0
109	305	0.2	0
109	305	0.3	0
109	305	0.4	0
109	305	0.5	0
109	305	0.6	0
109	305	0.7	0
109	305	0.8	0
109	305	0.9	0
109	305	1	0
109	305	1.1	0
109	305	1.2	0
109	305	1.3	0
109	305	1.4	0
109	305	1.5	0
109	305	1.6	0
109	305	1.7	0
109	305	1.8	0
109	305	1.9	0
109	305	2	0
109	305	2.1	0
109	305	2.2	0
109	305	2.3	0
109	305	2.4	0
109	305	2.5	0
109	305	2.6	0
109	305	2.7	0
109	305	2.8	0
109	305	2.9	0
109	305	3	0
109	305	3.1	0
109	305	3.2	0
109	305	3.3	0
109	305	3.4	0
109	305	3.5	0
109	305	3.6	0
109	305	3.7	0
109	305	3.8	0
109	305	3.9	0
109	305	4	0
109	305	4.1	0
109	305	4.2	0
109	305	4.3	0
109	305	4.4	0
109	305	4.5	0
109	305	4.6	0
109	305	4.7	0
109	305	4.8	0
109	305	4.9	0
109	305	5	0
109	305	5.1	0
109	305	5.2	0
109	305	5.3	0
109	305	5.4	0
109	305	5.5	0
109	305	5.6	0
109	305	5.7	0
109	305	5.8	0
109	305	5.9	0
109	305	6	0
109	305	6.1	0
109	305	6.2	0
109	305	6.3	0
109	305	6.4	0
109	305	6.5	0
109	305	6.6	0
109	305	6.7	0
109	305	6.8	0
109	305	6.9	0
109	305	7	0
109	305	7.1	0
109	305	7.2	0
109	305	7.3	0
109	305	7.4	0
109	305	7.5	0
109	305	7.6	0
109	305	7.7	0
109	305	7.8	0
109	305	7.9	0
109	305	8	0
109	305	8.1	0
109	305	8.2	0
109	305	8.3	0
109	305	8.4	0
109	305	8.5	0
109	305	8.6	0
109	305	8.7	0
109	305	8.8	0
109	305	8.9	0
109	305	9	0
109	305	9.1	0
109	305	9.2	0
109	305	9.3	0
109	305	9.4	0
109	305	9.5	0
109	305	9.6	0
109	305	9.7	0
109	305	9.8	0
109	305	9.9	0
109	305	10	0
109	305	10.1	0
109	305	10.2	0
109	305	10.3	0
109	305	10.4	0
109	305	10.5	0
109	305	10.6	0
109	305	10.7	0
109	305	10.8	0
109	305	10.9	0
109	305	11	0
109	305	11.1	0
109	305	11.2	0
109	305	11.3	0
109	305	11.4	0
109	305	11.5	0
109	305	11.6	0
109	305	11.7	0
109	305	11.8	0
109	305	11.9	0
109	305	12	0
109	305	12.1	0
109	305	12.2	0
109	305	12.3	0
109	305	12.4	0
109	305	12.5	0
109	305	12.6	0
109	305	12.7	0
109	305	12.8	0
109	305	12.9	0
109	305	13	0
109	305	13.1	0
109	305	13.2	0
109	305	13.3	0
109	305	13.4	0
109	305	13.5	0
109	305	13.6	0
109	305	13.7	0
109	305	13.8	0
109	305	13.9	0
109	305	14	0
109	305	14.1	0
109	305	14.2	0
109	305	14.3	0
109	305	14.4	0
109	305	14.5	0
109	305	14.6	0
109	305	14.7	0
109	305	14.8	0
109	305	14.9	0
109	305	15	0
109	305	15.1	0
109	305	15.2	0
109	305	15.3	0
109	305	15.4	0
109	305	15.5	0
109	305	15.6	0
109	305	15.7	0
109	305	15.8	0
109	305	15.9	0
109	305	16	0
109	305	16.1	0
109	305	16.2	0
109	305	16.3	0
109	305	16.4	0
109	305	16.5	0
109	305	16.6	0
109	305	16.7	0
109	305	16.8	0
109	305	16.9	0
109	305	17	0
109	305	17.1	0
109	305	17.2	0
109	305	17.3	0
109	305	17.4	0
109	305	17.5	0
109	305	17.6	0
109	305	17.7	0
109	305	17.8	0
109	305	17.9	0
109	305	18	0
109	305	18.1	0
109	305	18.2	0
109	305	18.3	0
109	305	18.4	0
109	305	18.5	0
109	305	18.6	0
109	305	18.7	0
109	305	18.8	0
109	305	18.9	0
109	305	19	0
109	305	19.1	0
109	305	19.2	0
109	305	19.3	0
109	305	19.4	0
109	305	19.5	0
109	305	19.6	0
109	305	19.7	0
109	305	19.8	0
109	305	19.9	0
109	305	20	0
109	948	20.1	40000
109	948	20.2	0
109	948	20.3	0
109	948	20.4	0
109	948	20.5	0
109	948	20.6	0
109	948	20.7	0
109	948	20.8	0
109	948	20.9	0
109	948	21	0
109	948	21.1	0
109	948	21.2	0
109	948	21.3	0
109	948	21.4	0
109	948	21.5	0
109	948	21.6	0
109	948	21.7	0
109	948	21.8	0
109	948	21.9	0
109	948	22	0
109	948	22.1	0
109	948	22.2	0
109	948	22.3	0
109	948	22.4	0
109	948	22.5	0
109	948	22.6	0
109	948	22.7	0
109	948	22.8	0
109	948	22.9	0
109	948	23	0
109	948	23.1	0
109	948	23.2	0
109	948	23.3	0
109	948	23.4	0
109	948	23.5	0
109	948	23.6	0
109	948	23.7	0
109	948	23.8	0
109	948	23.9	0
109	948	24	0
109	948	24.1	0
109	948	24.2	0
109	948	24.3	0
109	948	24.4	0
109	948	24.5	0
109	948	24.6	0
109	948	24.7	0
109	948	24.8	0
109	948	24.9	0
109	948	25	0
109	948	25.1	0
109	948	25.2	0
109	948	25.3	0
109	948	25.4	0
109	948	25.5	0
109	948	25.6	0
109	948	25.7	0
109	948	25.8	0
109	948	25.9	0
109	948	26	0
109	948	26.1	0
109	948	26.2	0
109	948	26.3	0
109	948	26.4	0
109	948	26.5	0
109	948	26.6	0
109	948	26.7	0
109	948	26.8	0
109	948	26.9	0
109	948	27	0
109	948	27.1	0
109	948	27.2	0
109	948	27.3	0
109	948	27.4	0
109	948	27.5	0
109	948	27.6	0
109	948	27.7	0
109	948	27.8	0
109	948	27.9	0
109	948	28	0
109	948	28.1	0
109	948	28.2	0
109	948	28.3	0
109	948	28.4	0
109	948	28.5	0
109	948	28.6	0
109	948	28.7	0
109	948	28.8	0
109	948	28.9	0
109	948	29	0
109	948	29.1	0
109	948	29.2	0
109	948	29.3	0
109	948	29.4	0
109	948	29.5	0
109	948	29.6	0
109	948	29.7	0
109	948	29.8	0
109	948	29.9	0
109	948	30	0
109	948	30.1	0
109	948	30.2	0
109	948	30.3	0
109	948	30.4	0
109	948	30.5	0
109	948	30.6	0
109	948	30.7	0
109	948	30.8	0
109	948	30.9	0
109	948	31	0
109	948	31.1	0
109	948	31.2	0
109	948	31.3	0
109	948	31.4	0
109	948	31.5	0
109	948	31.6	0
109	948	31.7	0
109	948	31.8	0
109	948	31.9	0
109	948	32	0
109	948	32.1	0
109	948	32.2	0
109	948	32.3	0
109	948	32.4	0
109	948	32.5	0
109	948	32.6	0
109	948	32.7	0
109	948	32.8	0
109	948	32.9	0
109	948	33	0
109	948	33.1	0
109	948	33.2	0
109	948	33.3	0
109	948	33.4	0
109	948	33.5	0
109	948	33.6	0
109	948	33.7	0
109	948	33.8	0
109	948	33.9	0
109	948	34	0
109	948	34.1	0
109	948	34.2	0
109	948	34.3	0
109	948	34.4	0
109	948	34.5	0
109	948	34.6	0
109	948	34.7	0
109	948	34.8	0
109	948	34.9	0
109	948	35	0
109	948	35.1	0
109	948	35.2	0
109	948	35.3	0
109	948	35.4	0
109	948	35.5	0
109	948	35.6	0
109	948	35.7	0
109	948	35.8	0
109	948	35.9	0
109	948	36	0
109	948	36.1	0
109	948	36.2	0
109	948	36.3	0
108	305	20.000152253577	100
108	313	20.000152253577	100
108	399	20.000401495096	100
108	647	20.001272154303	100
108	702	20.001521419119	100
111	305	20.000152253577	100
vector 324 Scenario.node[34].wlan[0].radio radioMode:vector ETV
attr interpolationmode sample-hold
attr source radioModeChanged
attr title "Radio mode, vector"
vector 325 Scenario.node[34].wlan[0].radio radioChannel:vector ETV
attr interpolationmode sample-hold
attr source radioChannelChanged
attr title "Radio channel, vector"
vector 326 Scenario.node[34].wlan[0].radio receptionState:vector ETV
attr interpolationmode sample-hold
attr source receptionStateChanged
attr title "Radio reception state, vector"
vector 327 Scenario.node[34].wlan[0].mac.dcf.recoveryProcedure contentionWindowChanged:vector ETV
attr interpolationmode sample-hold
attr title "contention window, vector"
vector 328 Scenario.node[35].wlan[0].radio radioMode:vector ETV
attr interpolationmode sample-hold
attr source radioModeChanged
attr title "Radio mode, vector"
vector 329 Scenario.node[35].wlan[0].radio radioChannel:vector ETV
attr interpolationmode sample-hold
attr source radioChannelChanged
attr title "Radio channel, vector"
vector 330 Scenario.node[35].wlan[0].radio receptionState:vector ETV
attr interpolationmode sample-hold
attr source receptionStateChanged
attr title "Radio reception state, vector"
vector 331 Scenario.node[35].wlan[0].mac.dcf.recoveryProcedure contentionWindowChanged:vector ETV
attr interpolationmode sample-hold
attr title "contention window, vector"
vector 332 Scenario.node[36].wlan[0].radio radioMode:vector ETV
attr interpolationmode sample-hold
attr source radioModeChanged
attr title "Radio mode, vector"
vector 333 Scenario.node[36].wlan[0].radio radioChannel:vector ETV
attr interpolationmode sample-hold
attr source radioChannelChanged
attr title "Radio channel, vector"
vector 334 Scenario.node[36].wlan[0].radio receptionState:vector ETV
attr interpolationmode sample-hold
attr source receptionStateChanged
attr title "Radio reception state, vector"
vector 335 Scenario.node[36].wlan[0].mac.dcf.recoveryProcedure contentionWindowChanged:vector ETV
attr interpolationmode sample-hold
attr title "contention window, vector"
vector 336 Scenario.node[37].wlan[0].radio radioMode:vector ETV
attr interpolationmode sample-hold
attr source radioModeChanged
attr title "Radio mode, vector"
vector 337 Scenario.node[37].wlan[0].radio radioChannel:vector ETV
attr interpolationmode sample-hold
attr source radioChannelChanged
attr title "Radio channel, vector"
vector 338 Scenario.node[37].wlan[0].radio receptionState:vector ETV
attr interpolationmode sample-hold
attr source receptionStateChanged
attr title "Radio reception state, vector"
vector 339 Scenario.node[37].wlan[0].mac.dcf.recoveryProcedure contentionWindowChanged:vector ETV
attr interpolationmode sample-hold
attr title "contention window, vector"
vector 340 Scenario.node[38].wlan[0].radio radioMode:vector ETV
attr interpolationmode sample-hold
attr source radioModeChanged
attr title "Radio mode, vector"
vector 341 Scenario.node[38].wlan[0].radio radioChannel:vector ETV
attr interpolationmode sample-hold
attr source radioChannelChanged
attr title "Radio channel, vector"
vector 342 Scenario.node[38].wlan[0].radio receptionState:vector ETV
attr interpolationmode sample-hold
attr source receptionStateChanged
attr title "Radio reception state, vector"
vector 343 Scenario.node[38].wlan[0].mac.dcf.recoveryProcedure contentionWindowChanged:vector ETV
attr interpolationmode sample-hold
attr title "contention window, vector"
vector 344 Scenario.node[39].wlan[0].radio radioMode:vector ETV
attr interpolationmode sample-hold
attr source radioModeChanged
attr title "Radio mode, vector"
vector 345 Scenario.node[39].wlan[0].radio radioChannel:vector ETV
attr interpolationmode sample-hold
attr source radioChannelChanged
attr title "Radio channel, vector"
vector 346 Scenario.node[39].wlan[0].radio receptionState:vector ETV
attr interpolationmode sample-hold
attr source receptionStateChanged
attr title "Radio reception state, vector"
vector 347 Scenario.node[39].wlan[0].mac.dcf.recoveryProcedure contentionWindowChanged:vector ETV
attr interpolationmode sample-hold
attr title "contention window, vector"
vector 348 Scenario.node[40].wlan[0].radio radioMode:vector ETV
attr interpolationmode sample-hold
attr source radioModeChanged
attr title "Radio mode, vector"
vector 349 Scenario.node[40].wlan[0].radio radioChannel:vector ETV
attr interpolationmode sample-hold
attr source radioChannelChanged
attr title "Radio channel, vector"
vector 350 Scenario.node[40].wlan[0].radio receptionState:vector ETV
attr interpolationmode sample-hold
attr source receptionStateChanged
attr title "Radio reception state, vector"
vector 351 Scenario.node[40].wlan[0].mac.dcf.recoveryProcedure contentionWindowChanged:vector ETV
attr interpolationmode sample-hold
attr title "contention window, vector"
vector 352 Scenario.node[41].wlan[0].radio radioMode:vector ETV
attr interpolationmode sample-hold
attr source radioModeChanged
attr title "Radio mode, vector"
vector 353 Scenario.node[41].wlan[0].radio radioChannel:vector ETV
attr interpolationmode sample-hold
attr source radioChannelChanged
attr title "Radio channel, vector"
vector 354 Scenario.node[41].wlan[0].radio receptionState:vector ETV
attr interpolationmode sample-hold
attr source receptionStateChanged
attr title "Radio reception state, vector"
vector 355 Scenario.node[41].wlan[0].mac.dcf.recoveryProcedure contentionWindowChanged:vector ETV
attr interpolationmode sample-hold
attr title "contention window, vector"
vector 356 Scenario.node[42].wlan[0].radio radioMode:vector ETV
attr interpolationmode sample-hold
attr source radioModeChanged
attr title "Radio mode, vector"
vector 357 Scenario.node[42].wlan[0].radio radioChannel:vector ETV
attr interpolationmode sample-hold
attr source radioChannelChanged
attr title "Radio channel, vector"
vector 358 Scenario.node[42].wlan[0].radio receptionState:vector ETV
attr interpolationmode sample-hold
attr source receptionStateChanged
attr title "Radio reception state, vector"
vector 359 Scenario.node[42].wlan[0].mac.dcf.recoveryProcedure contentionWindowChanged:vector ETV
attr interpolationmode sample-hold
attr title "contention window, vector"
vector 360 Scenario.node[43].wlan[0].radio radioMode:vector ETV
attr interpolationmode sample-hold
attr source radioModeChanged
attr title "Radio mode, vector"
vector 361 Scenario.node[43].wlan[0].radio radioChannel:vector ETV
attr interpolationmode sample-hold
attr source radioChannelChanged
attr title "Radio channel, vector"
vector 362 Scenario.node[43].wlan[0].radio receptionState:vector ETV
attr interpolationmode sample-hold
attr source receptionStateChanged
attr title "Radio reception state, vector"
vector 363 Scenario.node[43].wlan[0].mac.dcf.recoveryProcedure contentionWindowChanged:vector ETV
attr interpolationmode sample-hold
attr title "contention window, vector"
[...]
575	1570	50.7	0
575	1570	50.8	0
575	1570	50.9	0
575	1570	51	0
575	1570	51.1	0
575	1570	51.2	0
575	1570	51.3	0
575	1570	51.4	0
575	1570	51.5	0
575	1570	51.6	0
575	1570	51.7	0
575	1570	51.8	0
575	1570	51.9	0
575	1570	52	0
575	1570	52.1	0
575	1570	52.2	0
575	1570	52.3	0
575	1570	52.4	0
575	1570	52.5	0
575	1570	52.6	0
575	1570	52.7	0
575	1570	52.8	0
575	1570	52.9	0
575	1570	53	0
575	1570	53.1	0
575	1570	53.2	0
575	1570	53.3	0
575	1570	53.4	0
575	1570	53.5	0
575	1570	53.6	0
575	1570	53.7	0
575	1570	53.8	0
575	1570	53.9	0
575	1570	54	0
575	1570	54.1	0
575	1570	54.2	0
575	1570	54.3	0
575	1570	54.4	0
575	1570	54.5	0
575	1570	54.6	0
575	1570	54.7	0
575	1570	54.8	0
575	1570	54.9	0
575	1570	55	0
575	1570	55.1	0
575	1570	55.2	0
575	1570	55.3	0
575	1570	55.4	0
575	1570	55.5	0
575	1570	55.6	0
575	1570	55.7	0
575	1570	55.8	0
575	1570	55.9	0
575	1570	56	0
575	1570	56.1	0
575	1570	56.2	0
575	1570	56.3	0
575	1570	56.4	0
575	1570	56.5	0
575	1570	56.6	0
575	1570	56.7	0
575	1570	56.8	0
575	1570	56.9	0
575	1570	57	0
575	1570	57.1	0
575	1570	57.2	0
575	1570	57.3	0
575	1570	57.4	0
575	1570	57.5	0
575	1570	57.6	0
575	1570	57.7	0
575	1570	57.8	0
575	1570	57.9	0
575	1570	58	0
575	1570	58.1	0
575	1570	58.2	0
575	1570	58.3	0
575	1570	58.4	0
575	1570	58.5	0
575	1570	58.6	0
575	1570	58.7	0
575	1570	58.8	0
575	1570	58.9	0
575	1570	59	0
575	1570	59.1	0
575	1570	59.2	0
575	1570	59.3	0
575	1570	59.4	0
575	1570	59.5	0
575	1570	59.6	0
575	1570	59.7	0
575	1570	59.8	0
575	1570	59.9	0
575	1570	60	0
575	1570	60.1	0
575	1570	60.2	0
575	1570	60.3	0
575	1570	60.4	0
575	1570	60.5	0
575	1570	60.6	0
575	1570	60.7	0
575	1570	60.8	0
575	1570	60.9	0
575	1570	61	0
575	1570	61.1	0
575	1570	61.2	0
575	1570	61.3	0
575	1570	61.4	0
575	1570	61.5	0
575	1570	61.6	0
575	1570	61.7	0
575	1570	61.8	0
575	1570	61.9	0
575	1570	62	0
575	1570	62.1	0
575	1570	62.2	0
575	1570	62.3	0
575	1570	62.4	0
575	1570	62.5	0
575	1570	62.6	0
575	1570	62.7	0
575	1570	62.8	0
575	1570	62.9	0
575	1570	63	0
575	1570	63.1	0
575	1570	63.2	0
575	1570	63.3	0
575	1570	63.4	0
575	1570	63.5	0
575	1570	63.6	0
575	1570	63.7	0
575	1570	63.8	0
575	1570	63.9	0
575	1570	64	0
575	1570	64.1	0
575	1570	64.2	0
575	1570	64.3	0
575	1570	64.4	0
575	1570	64.5	0
575	1570	64.6	0
575	1570	64.7	0
575	1570	64.8	0
575	1570	64.9	0
575	1570	65	0
575	1570	65.1	0
575	1570	65.2	0
575	1570	65.3	0
575	1570	65.4	0
575	1570	65.5	0
575	1570	65.6	0
575	1570	65.7	0
575	1570	65.8	0
575	1570	65.9	0
575	1570	66	0
575	1570	66.1	0
575	1570	66.2	0
575	1570	66.3	0
575	1570	66.4	0
575	1570	66.5	0
575	1570	66.6	0
575	1570	66.7	0
575	1570	66.8	0
575	1570	66.9	0
575	1570	67	0
575	1570	67.1	0
575	1570	67.2	0
575	1570	67.3	0
575	1570	67.4	0
575	1570	67.5	0
575	1570	67.6	0
575	1570	67.7	0
575	1570	67.8	0
575	1570	67.9	0
575	1570	68	0
575	1570	68.1	0
575	1570	68.2	0
575	1570	68.3	0
575	1570	68.4	0
575	1570	68.5	0
575	1570	68.6	0
575	1570	68.7	0
575	1570	68.8	0
575	1570	68.9	0
575	1570	69	0
575	1570	69.1	0
575	1570	69.2	0
575	1570	69.3	0
575	1570	69.4	0
575	1570	69.5	0
575	1570	69.6	0
575	1570	69.7	0
575	1570	69.8	0
575	1570	69.9	0
575	1570	70	0
575	1570	70.1	0
575	1570	70.2	0
575	1570	70.3	0
575	1570	70.4	0
575	1570	70.5	0
575	1570	70.6	0
575	1570	70.7	0
575	1570	70.8	0
575	1570	70.9	0
575	1570	71	0
575	1570	71.1	0
575	1570	71.2	0
575	1570	71.3	0
575	1570	71.4	0
575	1570	71.5	0
575	1570	71.6	0
575	1570	71.7	0
575	1570	71.8	0
575	1570	71.9	0
575	1570	72	0
575	1570	72.1	0
575	1570	72.2	0
575	1570	72.3	0
575	1570	72.4	0
575	1570	72.5	0
575	1570	72.6	0
575	1570	72.7	0
575	1570	72.8	0
575	1570	72.9	0
575	1570	73	0
575	1570	73.1	0
575	1570	73.2	0
575	1570	73.3	0
575	1570	73.4	0
575	1570	73.5	0
575	1570	73.6	0
575	1570	73.7	0
575	1570	73.8	0
575	1570	73.9	0
575	1570	74	0
575	1570	74.1	0
575	1570	74.2	0
575	1570	74.3	0
575	1570	74.4	0
575	1570	74.5	0
575	1570	74.6	0
575	1570	74.7	0
575	1570	74.8	0
575	1570	74.9	0
575	1570	75	0
575	1570	75.1	0
575	1570	75.2	0
575	1570	75.3	0
575	1570	75.4	0
575	1570	75.5	0
575	1570	75.6	0
575	1570	75.7	0
575	1570	75.8	0
575	1570	75.9	0
575	1570	76	0
575	1570	76.1	0
575	1570	76.2	0
575	1570	76.3	0
575	1570	76.4	0
575	1570	76.5	0
575	1570	76.6	0
575	1570	76.7	0
575	1570	76.8	0
575	1570	76.9	0
575	1570	77	0
575	1570	77.1	0
575	1570	77.2	0
575	1570	77.3	0
575	1570	77.4	0
575	1570	77.5	0
575	1570	77.6	0
575	1570	77.7	0
575	1570	77.8	0
575	1570	77.9	0
575	1570	78	0
575	1570	78.1	0
575	1570	78.2	0
575	1570	78.3	0
575	1570	78.4	0
575	1570	78.5	0
575	1570	78.6	0
575	1570	78.7	0
575	1570	78.8	0
575	1570	78.9	0
575	1570	79	0
575	1570	79.1	0
575	1570	79.2	0
575	1570	79.3	0
575	1570	79.4	0
575	1570	79.5	0
575	1570	79.6	0
575	1570	79.7	0
575	1570	79.8	0
575	1570	79.9	0
575	1570	80	0
575	1570	80.1	0
575	1570	80.2	0
575	1570	80.3	0
575	1570	80.4	0
575	1570	80.5	0
575	1570	80.6	0
575	1570	80.7	0
575	1570	80.8	0
575	1570	80.9	0
575	1570	81	0
575	1570	81.1	0
575	1570	81.2	0
575	1570	81.3	0
575	1570	81.4	0
575	1570	81.5	0
575	1570	81.6	0
575	1570	81.7	0
575	1570	81.8	0
575	1570	81.9	0
575	1570	82	0
575	1570	82.1	0
575	1570	82.2	0
575	1570	82.3	0
575	1570	82.4	0
575	1570	82.5	0
575	1570	82.6	0
575	1570	82.7	0
575	1570	82.8	0
575	1570	82.9	0
575	1570	83	0
575	1570	83.1	0
575	1570	83.2	0
575	1570	83.3	0
575	1570	83.4	0
575	1570	83.5	0
575	1570	83.6	0
575	1570	83.7	0
575	1570	83.8	0
575	1570	83.9	0
575	1570	84	0
575	1570	84.1	0
575	1570	84.2	0
575	1570	84.3	0
575	1570	84.4	0
575	1570	84.5	0
575	1570	84.6	0
575	1570	84.7	0
575	1570	84.8	0
575	1570	84.9	0
575	1570	85	0
575	1570	85.1	0
576	1570	0.1	0
576	1570	0.2	0
576	1570	0.3	0
576	1570	0.4	0
576	1570	0.5	0
576	1570	0.6	0
576	1570	0.7	0
576	1570	0.8	0
576	1570	0.9	0
576	1570	1	0
576	1570	1.1	0
576	1570	1.2	0
576	1570	1.3	0
576	1570	1.4	0
576	1570	1.5	0
576	1570	1.6	0
576	1570	1.7	0
576	1570	1.8	0
576	1570	1.9	0
576	1570	2	0
576	1570	2.1	0
576	1570	2.2	0
576	1570	2.3	0
576	1570	2.4	0
576	1570	2.5	0
576	1570	2.6	0
576	1570	2.7	0
576	1570	2.8	0
576	1570	2.9	0
576	1570	3	0
576	1570	3.1	0
576	1570	3.2	0
576	1570	3.3	0
576	1570	3.4	0
576	1570	3.5	0
576	1570	3.6	0
576	1570	3.7	0
576	1570	3.8	0
576	1570	3.9	0
576	1570	4	0
576	1570	4.1	0
576	1570	4.2	0
576	1570	4.3	0
576	1570	4.4	0
576	1570	4.5	0
576	1570	4.6	0
576	1570	4.7	0
576	1570	4.8	0
576	1570	4.9	0
576	1570	5	0
576	1570	5.1	0
576	1570	5.2	0
576	1570	5.3	0
576	1570	5.4	0
576	1570	5.5	0
576	1570	5.6	0
576	1570	5.7	0
576	1570	5.8	0
576	1570	5.9	0
576	1570	6	0
576	1570	6.1	0
576	1570	6.2	0
576	1570	6.3	0
576	1570	6.4	0
576	1570	6.5	0
576	1570	6.6	0
576	1570	6.7	0
576	1570	6.8	0
576	1570	6.9	0
576	1570	7	0
576	1570	7.1	0
576	1570	7.2	0
576	1570	7.3	0
576	1570	7.4	0
576	1570	7.5	0
576	1570	7.6	0
576	1570	7.7	0
576	1570	7.8	0
576	1570	7.9	0
576	1570	8	0
576	1570	8.1	0
576	1570	8.2	0
576	1570	8.3	0
576	1570	8.4	0
576	1570	8.5	0
576	1570	8.6	0
576	1570	8.7	0
576	1570	8.8	0
576	1570	8.9	0
576	1570	9	0
576	1570	9.1	0
576	1570	9.2	0
576	1570	9.3	0
576	1570	9.4	0
576	1570	9.5	0
576	1570	9.6	0
576	1570	9.7	0
576	1570	9.8	0
576	1570	9.9	0
576	1570	10	0
576	1570	10.1	0
576	1570	10.2	0
576	1570	10.3	0
576	1570	10.4	0
576	1570	10.5	0
576	1570	10.6	0
576	1570	10.7	0
576	1570	10.8	0
576	1570	10.9	0
576	1570	11	0
576	1570	11.1	0
576	1570	11.2	0
576	1570	11.3	0
576	1570	11.4	0
576	1570	11.5	0
576	1570	11.6	0
576	1570	11.7	0
576	1570	11.8	0
576	1570	11.9	0
576	1570	12	0
576	1570	12.1	0
576	1570	12.2	0
576	1570	12.3	0
576	1570	12.4	0
576	1570	12.5	0
576	1570	12.6	0
576	1570	12.7	0
576	1570	12.8	0
576	1570	12.9	0
576	1570	13	0
576	1570	13.1	0
576	1570	13.2	0
576	1570	13.3	0
576	1570	13.4	0
576	1570	13.5	0
576	1570	13.6	0
576	1570	13.7	0
576	1570	13.8	0
576	1570	13.9	0
576	1570	14	0
576	1570	14.1	0
576	1570	14.2	0
576	1570	14.3	0
576	1570	14.4	0
576	1570	14.5	0
576	1570	14.6	0
576	1570	14.7	0
576	1570	14.8	0
576	1570	14.9	0
576	1570	15	0
576	1570	15.1	0
576	1570	15.2	0
576	1570	15.3	0
576	1570	15.4	0
576	1570	15.5	0
576	1570	15.6	0
576	1570	15.7	0
576	1570	15.8	0
576	1570	15.9	0
576	1570	16	0
576	1570	16.1	0
576	1570	16.2	0
576	1570	16.3	0
576	1570	16.4	0
576	1570	16.5	0
576	1570	16.6	0
576	1570	16.7	0
576	1570	16.8	0
576	1570	16.9	0
576	1570	17	0
576	1570	17.1	0
576	1570	17.2	0
576	1570	17.3	0
576	1570	17.4	0
576	1570	17.5	0
576	1570	17.6	0
576	1570	17.7	0
576	1570	17.8	0
576	1570	17.9	0
576	1570	18	0
576	1570	18.1	0
576	1570	18.2	0
576	1570	18.3	0
576	1570	18.4	0
576	1570	18.5	0
576	1570	18.6	0
576	1570	18.7	0
576	1570	18.8	0
576	1570	18.9	0
576	1570	19	0
576	1570	19.1	0
576	1570	19.2	0
576	1570	19.3	0
576	1570	19.4	0
576	1570	19.5	0
576	1570	19.6	0
576	1570	19.7	0
576	1570	19.8	0
576	1570	19.9	0
576	1570	20	0
576	1570	20.1	0
576	1570	20.2	0
576	1570	20.3	0
576	1570	20.4	0
576	1570	20.5	0
576	1570	20.6	0
576	1570	20.7	0
576	1570	20.8	0
576	1570	20.9	0
576	1570	21	0
576	1570	21.1	0
576	1570	21.2	0
576	1570	21.3	0
576	1570	21.4	0
576	1570	21.5	0
576	1570	21.6	0
576	1570	21.7	0
576	1570	21.8	0
576	1570	21.9	0
576	1570	22	0
576	1570	22.1	0
576	1570	22.2	0
576	1570	22.3	0
576	1570	22.4	0
576	1570	22.5	0
576	1570	22.6	0
576	1570	22.7	0
576	1570	22.8	0
576	1570	22.9	0
576	1570	23	0
576	1570	23.1	0
576	1570	23.2	0
576	1570	23.3	0
576	1570	23.4	0
576	1570	23.5	0
576	1570	23.6	0
576	1570	23.7	0
576	1570	23.8	0
576	1570	23.9	0
576	1570	24	0
576	1570	24.1	0
576	1570	24.2	0
576	1570	24.3	0
576	1570	24.4	0
576	1570	24.5	0
576	1570	24.6	0
576	1570	24.7	0
576	1570	24.8	0
576	1570	24.9	0
576	1570	25	0
576	1570	25.1	0
576	1570	25.2	0
576	1570	25.3	0
576	1570	25.4	0
576	1570	25.5	0
576	1570	25.6	0
576	1570	25.7	0
576	1570	25.8	0
576	1570	25.9	0
576	1570	26	0
576	1570	26.1	0
576	1570	26.2	0
576	1570	26.3	0
576	1570	26.4	0
576	1570	26.5	0
576	1570	26.6	0
576	1570	26.7	0
576	1570	26.8	0
576	1570	26.9	0
576	1570	27	0
576	1570	27.1	0
576	1570	27.2	0
576	1570	27.3	0
576	1570	27.4	0
576	1570	27.5	0
576	1570	27.6	0
576	1570	27.7	0
576	1570	27.8	0
576	1570	27.9	0
576	1570	28	0
576	1570	28.1	0
576	1570	28.2	0
576	1570	28.3	0
576	1570	28.4	0
576	1570	28.5	0
576	1570	28.6	0
576	1570	28.7	0
576	1570	28.8	0
576	1570	28.9	0
576	1570	29	0
576	1570	29.1	0
576	1570	29.2	0
576	1570	29.3	0
576	1570	29.4	0
576	1570	29.5	0
576	1570	29.6	0
576	1570	29.7	0
576	1570	29.8	0
576	1570	29.9	0
576	1570	30	0
576	1570	30.1	0
576	1570	30.2	0
576	1570	30.3	0
576	1570	30.4	0
576	1570	30.5	0
576	1570	30.6	0
576	1570	30.7	0
576	1570	30.8	0
576	1570	30.9	0
576	1570	31	0
576	1570	31.1	0
576	1570	31.2	0
576	1570	31.3	0
576	1570	31.4	0
576	1570	31.5	0
576	1570	31.6	0
576	1570	31.7	0
576	1570	31.8	0
576	1570	31.9	0
576	1570	32	0
576	1570	32.1	0
576	1570	32.2	0
576	1570	32.3	0
576	1570	32.4	0
576	1570	32.5	0
576	1570	32.6	0
576	1570	32.7	0
576	1570	32.8	0
576	1570	32.9	0
576	1570	33	0
576	1570	33.1	0
576	1570	33.2	0
576	1570	33.3	0
576	1570	33.4	0
576	1570	33.5	0
576	1570	33.6	0
576	1570	33.7	0
576	1570	33.8	0
576	1570	33.9	0
576	1570	34	0
576	1570	34.1	0
576	1570	34.2	0
576	1570	34.3	0
576	1570	34.4	0
576	1570	34.5	0
576	1570	34.6	0
576	1570	34.7	0
576	1570	34.8	0
576	1570	34.9	0
576	1570	35	0
576	1570	35.1	0
576	1570	35.2	0
576	1570	35.3	0
576	1570	35.4	0
576	1570	35.5	0
576	1570	35.6	0
576	1570	35.7	0
576	1570	35.8	0
576	1570	35.9	0
576	1570	36	0
576	1570	36.1	0
576	1570	36.2	0
576	1570	36.3	0
576	1570	36.4	0
576	1570	36.5	0
576	1570	36.6	0
576	1570	36.7	0
576	1570	36.8	0
576	1570	36.9	0
576	1570	37	0
576	1570	37.1	0
576	1570	37.2	0
576	1570	37.3	0
576	1570	37.4	0
576	1570	37.5	0
576	1570	37.6	0
576	1570	37.7	0
576	1570	37.8	0
576	1570	37.9	0
576	1570	38	0
576	1570	38.1	0
576	1570	38.2	0
576	1570	38.3	0
576	1570	38.4	0
576	1570	38.5	0
576	1570	38.6	0
576	1570	38.7	0
576	1570	38.8	0
576	1570	38.9	0
576	1570	39	0
576	1570	39.1	0
576	1570	39.2	0
576	1570	39.3	0
576	1570	39.4	0
576	1570	39.5	0
576	1570	39.6	0
576	1570	39.7	0
576	1570	39.8	0
576	1570	39.9	0
576	1570	40	0
576	1570	40.1	0
576	1570	40.2	0
576	1570	40.3	0
576	1570	40.4	0
576	1570	40.5	0
576	1570	40.6	0
576	1570	40.7	0
576	1570	40.8	0
576	1570	40.9	0
576	1570	41	0
576	1570	41.1	0
576	1570	41.2	0
576	1570	41.3	0
576	1570	41.4	0
576	1570	41.5	0
576	1570	41.6	0
576	1570	41.7	0
576	1570	41.8	0
576	1570	41.9	0
576	1570	42	0
576	1570	42.1	0
576	1570	42.2	0
576	1570	42.3	0
576	1570	42.4	0
576	1570	42.5	0
576	1570	42.6	0
576	1570	42.7	0
576	1570	42.8	0
576	1570	42.9	0
576	1570	43	0
576	1570	43.1	0
576	1570	43.2	0
576	1570	43.3	0
576	1570	43.4	0
576	1570	43.5	0
576	1570	43.6	0
576	1570	43.7	0
576	1570	43.8	0
576	1570	43.9	0
576	1570	44	0
576	1570	44.1	0
576	1570	44.2	0
576	1570	44.3	0
576	1570	44.4	0
576	1570	44.5	0
576	1570	44.6	0
576	1570	44.7	0
576	1570	44.8	0
576	1570	44.9	0
576	1570	45	0
576	1570	45.1	0
576	1570	45.2	0
576	1570	45.3	0
576	1570	45.4	0
576	1570	45.5	0
576	1570	45.6	0
576	1570	45.7	0
576	1570	45.8	0
576	1570	45.9	0
576	1570	46	0
576	1570	46.1	0
576	1570	46.2	0
576	1570	46.3	0
576	1570	46.4	0
576	1570	46.5	0
576	1570	46.6	0
576	1570	46.7	0
576	1570	46.8	0
576	1570	46.9	0
576	1570	47	0
576	1570	47.1	0
576	1570	47.2	0
576	1570	47.3	0
576	1570	47.4	0
576	1570	47.5	0
576	1570	47.6	0
576	1570	47.7	0
576	1570	47.8	0
576	1570	47.9	0
576	1570	48	0
576	1570	48.1	0
576	1570	48.2	0
576	1570	48.3	0
576	1570	48.4	0
576	1570	48.5	0
576	1570	48.6	0
576	1570	48.7	0
576	1570	48.8	0
576	1570	48.9	0
576	1570	49	0
576	1570	49.1	0
576	1570	49.2	0
576	1570	49.3	0
576	1570	49.4	0
576	1570	49.5	0
576	1570	49.6	0
576	1570	49.7	0
576	1570	49.8	0
576	1570	49.9	0
576	1570	50	0
576	1570	50.1	0
576	1570	50.2	0
576	1570	50.3	0
576	1570	50.4	0
576	1570	50.5	0
576	1570	50.6	0
576	1570	50.7	0
576	1570	50.8	0
576	1570	50.9	0
576	1570	51	0
576	1570	51.1	0
576	1570	51.2	0
576	1570	51.3	0
576	1570	51.4	0
576	1570	51.5	0
576	1570	51.6	0
576	1570	51.7	0
576	1570	51.8	0
576	1570	51.9	0
576	1570	52	0
576	1570	52.1	0
576	1570	52.2	0
576	1570	52.3	0
576	1570	52.4	0
576	1570	52.5	0
576	1570	52.6	0
576	1570	52.7	0
576	1570	52.8	0
576	1570	52.9	0
576	1570	53	0
576	1570	53.1	0
576	1570	53.2	0
576	1570	53.3	0
576	1570	53.4	0
576	1570	53.5	0
576	1570	53.6	0
576	1570	53.7	0
576	1570	53.8	0
576	1570	53.9	0
576	1570	54	0
576	1570	54.1	0
576	1570	54.2	0
576	1570	54.3	0
576	1570	54.4	0
576	1570	54.5	0
576	1570	54.6	0
576	1570	54.7	0
576	1570	54.8	0
576	1570	54.9	0
576	1570	55	0
576	1570	55.1	0
576	1570	55.2	0
576	1570	55.3	0
576	1570	55.4	0
576	1570	55.5	0
576	1570	55.6	0
576	1570	55.7	0
576	1570	55.8	0
576	1570	55.9	0
576	1570	56	0
576	1570	56.1	0
576	1570	56.2	0
576	1570	56.3	0
576	1570	56.4	0
576	1570	56.5	0
576	1570	56.6	0
576	1570	56.7	0
576	1570	56.8	0
576	1570	56.9	0
576	1570	57	0
576	1570	57.1	0
576	1570	57.2	0
576	1570	57.3	0
576	1570	57.4	0
576	1570	57.5	0
576	1570	57.6	0
576	1570	57.7	0
576	1570	57.8	0
576	1570	57.9	0
576	1570	58	0
576	1570	58.1	0
576	1570	58.2	0
576	1570	58.3	0
576	1570	58.4	0
576	1570	58.5	0
576	1570	58.6	0
576	1570	58.7	0
576	1570	58.8	0
576	1570	58.9	0
576	1570	59	0
576	1570	59.1	0
576	1570	59.2	0
576	1570	59.3	0
576	1570	59.4	0
576	1570	59.5	0
576	1570	59.6	0
576	1570	59.7	0
576	1570	59.8	0
576	1570	59.9	0
576	1570	60	0
576	1570	60.1	0
576	1570	60.2	0
576	1570	60.3	0
576	1570	60.4	0
576	1570	60.5	0
576	1570	60.6	0
576	1570	60.7	0
576	1570	60.8	0
576	1570	60.9	0
576	1570	61	0
576	1570	61.1	0
576	1570	61.2	0
576	1570	61.3	0
576	1570	61.4	0
576	1570	61.5	0
576	1570	61.6	0
576	1570	61.7	0
576	1570	61.8	0
576	1570	61.9	0
576	1570	62	0
576	1570	62.1	0
576	1570	62.2	0
576	1570	62.3	0
576	1570	62.4	0
576	1570	62.5	0
576	1570	62.6	0
576	1570	62.7	0
576	1570	62.8	0
576	1570	62.9	0
576	1570	63	0
576	1570	63.1	0
576	1570	63.2	0
576	1570	63.3	0
576	1570	63.4	0
576	1570	63.5	0
576	1570	63.6	0
576	1570	63.7	0
576	1570	63.8	0
576	1570	63.9	0
576	1570	64	0
576	1570	64.1	0
576	1570	64.2	0
576	1570	64.3	0
576	1570	64.4	0
576	1570	64.5	0
576	1570	64.6	0
576	1570	64.7	0
576	1570	64.8	0
576	1570	64.9	0
576	1570	65	0
576	1570	65.1	0
576	1570	65.2	0
576	1570	65.3	0
576	1570	65.4	0
576	1570	65.5	0
576	1570	65.6	0
576	1570	65.7	0
576	1570	65.8	0
576	1570	65.9	0
576	1570	66	0
576	1570	66.1	0
576	1570	66.2	0
576	1570	66.3	0
576	1570	66.4	0
576	1570	66.5	0
576	1570	66.6	0
576	1570	66.7	0
576	1570	66.8	0
576	1570	66.9	0
576	1570	67	0
576	1570	67.1	0
576	1570	67.2	0
576	1570	67.3	0
576	1570	67.4	0
576	1570	67.5	0
576	1570	67.6	0
576	1570	67.7	0
576	1570	67.8	0
576	1570	67.9	0
576	1570	68	0
576	1570	68.1	0
576	1570	68.2	0
576	1570	68.3	0
576	1570	68.4	0
576	1570	68.5	0
576	1570	68.6	0
576	1570	68.7	0
576	1570	68.8	0
576	1570	68.9	0
576	1570	69	0
576	1570	69.1	0
576	1570	69.2	0
576	1570	69.3	0
576	1570	69.4	0
576	1570	69.5	0
576	1570	69.6	0
576	1570	69.7	0
576	1570	69.8	0
576	1570	69.9	0
576	1570	70	0
576	1570	70.1	0
576	1570	70.2	0
576	1570	70.3	0
576	1570	70.4	0
576	1570	70.5	0
576	1570	70.6	0
576	1570	70.7	0
576	1570	70.8	0
576	1570	70.9	0
576	1570	71	0
576	1570	71.1	0
576	1570	71.2	0
576	1570	71.3	0
576	1570	71.4	0
576	1570	71.5	0
576	1570	71.6	0
576	1570	71.7	0
576	1570	71.8	0
576	1570	71.9	0
576	1570	72	0
576	1570	72.1	0
576	1570	72.2	0
576	1570	72.3	0
576	1570	72.4	0
576	1570	72.5	0
576	1570	72.6	0
576	1570	72.7	0
576	1570	72.8	0
576	1570	72.9	0
576	1570	73	0
576	1570	73.1	0
576	1570	73.2	0
576	1570	73.3	0
576	1570	73.4	0
576	1570	73.5	0
576	1570	73.6	0
576	1570	73.7	0
576	1570	73.8	0
576	1570	73.9	0
576	1570	74	0
576	1570	74.1	0
576	1570	74.2	0
576	1570	74.3	0
576	1570	74.4	0
576	1570	74.5	0
576	1570	74.6	0
576	1570	74.7	0
576	1570	74.8	0
576	1570	74.9	0
576	1570	75	0
576	1570	75.1	0
576	1570	75.2	0
576	1570	75.3	0
576	1570	75.4	0
576	1570	75.5	0
576	1570	75.6	0
576	1570	75.7	0
576	1570	75.8	0
576	1570	75.9	0
576	1570	76	0
576	1570	76.1	0
576	1570	76.2	0
576	1570	76.3	0
576	1570	76.4	0
576	1570	76.5	0
576	1570	76.6	0
576	1570	76.7	0
576	1570	76.8	0
576	1570	76.9	0
576	1570	77	0
576	1570	77.1	0
576	1570	77.2	0
576	1570	77.3	0
576	1570	77.4	0
576	1570	77.5	0
576	1570	77.6	0
576	1570	77.7	0
576	1570	77.8	0
576	1570	77.9	0
576	1570	78	0
576	1570	78.1	0
576	1570	78.2	0
576	1570	78.3	0
576	1570	78.4	0
576	1570	78.5	0
576	1570	78.6	0
576	1570	78.7	0
576	1570	78.8	0
576	1570	78.9	0
576	1570	79	0
576	1570	79.1	0
576	1570	79.2	0
576	1570	79.3	0
576	1570	79.4	0
576	1570	79.5	0
576	1570	79.6	0
576	1570	79.7	0
576	1570	79.8	0
576	1570	79.9	0
576	1570	80	0
576	1570	80.1	0
576	1570	80.2	0
576	1570	80.3	0
576	1570	80.4	0
576	1570	80.5	0
576	1570	80.6	0
576	1570	80.7	0
576	1570	80.8	0
576	1570	80.9	0
576	1570	81	0
576	1570	81.1	0
576	1570	81.2	0
576	1570	81.3	0
576	1570	81.4	0
576	1570	81.5	0
576	1570	81.6	0
576	1570	81.7	0
576	1570	81.8	0
576	1570	81.9	0
576	1570	82	0
576	1570	82.1	0
576	1570	82.2	0
576	1570	82.3	0
576	1570	82.4	0
576	1570	82.5	0
576	1570	82.6	0
576	1570	82.7	0
576	1570	82.8	0
576	1570	82.9	0
576	1570	83	0
576	1570	83.1	0
576	1570	83.2	0
576	1570	83.3	0
576	1570	83.4	0
576	1570	83.5	0
576	1570	83.6	0
576	1570	83.7	0
576	1570	83.8	0
576	1570	83.9	0
576	1570	84	0
576	1570	84.1	0
576	1570	84.2	0
576	1570	84.3	0
576	1570	84.4	0
576	1570	84.5	0
576	1570	84.6	0
576	1570	84.7	0
576	1570	84.8	0
576	1570	84.9	0
576	1570	85	0
576	1570	85.1	0

